data_PSI-PPT1
_audit_creation_method             	Write2Cif           
_symmetry_space_group_name_H-M     	CMCA                
_symmetry_Int_Tables_number        	64                  
_symmetry_cell_setting             	orthorhombic system 
_cell_length_a                     	8.2281              
_cell_length_b                     	22.4563             
_cell_length_c                     	37.8911             
_cell_angle_alpha                  	90.0                
_cell_angle_beta                   	90.0                
_cell_angle_gamma                  	90.0                
loop_
_symmetry_equiv_pos_as_xyz
x,y,z
-x,-y+1/2,z+1/2
-x,y+1/2,-z+1/2
x,-y,-z
-x,-y,-z
x,y+1/2,-z+1/2
x,-y+1/2,z+1/2
-x,y,z
x+1/2,y+1/2,z
-x+1/2,-y,z+1/2
-x+1/2,y,-z+1/2
x+1/2,-y+1/2,-z
-x+1/2,-y+1/2,-z
x+1/2,y,-z+1/2
x+1/2,-y,z+1/2
-x+1/2,y+1/2,z
loop_
_atom_site_label
_atom_site_type_symbol
_atom_site_fract_x
_atom_site_fract_y
_atom_site_fract_z
O1        	O         	0.2573    	0.04249   	0.55262   
O2        	O         	0.20341   	0.13727   	0.51419   
O3        	O         	0.29032   	0.14921   	0.58077   
O4        	O         	0.24101   	0.11606   	0.64631   
O5        	O         	0.30277   	0.01152   	0.61844   
O6        	O         	0.20289   	0.01796   	0.68373   
O7        	O         	0.19835   	0.32971   	0.54927   
O8        	O         	0.21139   	0.22877   	0.62902   
O9        	O         	0.29115   	0.40957   	0.79757   
O10       	O         	0.21729   	0.3012    	0.81807   
O11       	O         	0.26166   	0.34279   	0.61717   
O12       	O         	0.30192   	0.43235   	0.57301   
O13       	O         	0.0       	0.10858   	0.56507   
O14       	O         	0.0       	0.04271   	0.63218   
O15       	O         	0.0       	0.32236   	0.49502   
O16       	O         	0.0       	0.36739   	0.78544   
O17       	O         	0.0       	0.49813   	0.7067    
O18       	O         	0.0       	0.30858   	0.65085   
O19       	O         	0.0       	0.47142   	0.56929   
O20       	O         	0.25      	0.25      	0.5       
O21       	O         	0.5       	0.179     	0.63026   
O22       	O         	0.5       	0.3408    	0.5711    
O23       	O         	0.25      	0.32603   	0.75      
O24       	O         	0.25      	0.49372   	0.75      
Si1       	Si        	0.18785   	0.10953   	0.55324   
Si2       	Si        	0.18596   	0.04728   	0.64514   
Si3       	Si        	0.18615   	0.31635   	0.50761   
Si4       	Si        	0.31086   	0.16837   	0.62148   
Si5       	Si        	0.18972   	0.35048   	0.78778   
Si6       	Si        	0.18801   	0.47949   	0.71065   
Si7       	Si        	0.18986   	0.2949    	0.64468   
Si8       	Si        	0.31497   	0.36127   	0.5778    
Si9       	Si        	0.18514   	0.4892    	0.57814   
ZA2       	Lr        	0.0       	0.07859   	0.5995    
ZA4       	Lr        	0.0       	0.15502   	0.61614   
ZA5       	Lr        	0.0       	0.23901   	0.5662    
ZA6       	Lr        	0.0       	0.18707   	0.49386   
ZA8       	Lr        	0.0       	0.00182   	0.58858   
ZA12      	Lr        	0.0       	0.96418   	0.71434   
ZA13      	Lr        	0.0       	0.92044   	0.64477   
ZA17      	Lr        	0.0       	0.36543   	0.57706   
ZA19      	Lr        	0.0       	0.36884   	0.71383   
ZA1       	Lr        	0.5       	0.07859   	0.5995    
ZA3       	Lr        	0.5       	0.41499   	0.75      
ZA9       	Lr        	0.5       	0.11269   	0.56131   
ZA10      	Lr        	0.5       	0.23901   	0.5662    
ZA15      	Lr        	0.5       	0.92044   	0.64477   
ZA16      	Lr        	0.5       	0.04609   	0.63885   
ZA18      	Lr        	0.5       	0.29375   	0.63905   
ZA7       	Lr        	0.0       	0.0       	0.5       
ZA11      	Lr        	0.5       	0.0       	0.5       
ZA14      	Lr        	0.0       	0.1681    	0.75      
loop_
_geom_bond_atom_site_label_1
_geom_bond_atom_site_label_2
_geom_bond_distance
_geom_bond_site_symmetry_2
_ccdc_geom_bond_type
O1   	Si1  	1.61      	1_555	S  
O1   	Si9  	1.61      	16_545	S  
O2   	Si1  	1.611     	1_555	S  
O2   	Si3  	1.61      	13_556	S  
O3   	Si1  	1.61      	1_555	S  
O3   	Si4  	1.61      	1_555	S  
O4   	Si2  	1.61      	1_555	S  
O4   	Si4  	1.611     	1_555	S  
O5   	Si2  	1.61      	1_555	S  
O5   	Si9  	1.61      	16_545	S  
O6   	Si2  	1.61      	1_555	S  
O6   	Si6  	1.61      	16_545	S  
O7   	Si8  	1.61      	1_555	S  
O7   	Si3  	1.61      	1_555	S  
O8   	Si7  	1.609     	1_555	S  
O8   	Si4  	1.61      	1_555	S  
O9   	Si5  	1.611     	1_555	S  
O9   	Si6  	1.61      	11_556	S  
O10  	Si5  	1.61      	1_555	S  
O10  	Si7  	1.611     	11_556	S  
O11  	Si8  	1.609     	1_555	S  
O11  	Si7  	1.61      	1_555	S  
O12  	Si9  	1.61      	1_555	S  
O12  	Si8  	1.61      	1_555	S  
Si1  	O13  	1.609     	1_555	S  
Si2  	O14  	1.61      	1_555	S  
Si3  	O20  	1.606     	1_555	S  
Si3  	O2   	1.61      	13_556	S  
Si3  	O15  	1.61      	1_555	S  
Si4  	O21  	1.609     	1_555	S  
Si5  	O23  	1.611     	1_555	S  
Si5  	O16  	1.609     	1_555	S  
Si6  	O24  	1.608     	1_555	S  
Si6  	O6   	1.61      	16_555	S  
Si6  	O9   	1.61      	11_556	S  
Si6  	O17  	1.61      	1_555	S  
Si7  	O10  	1.611     	11_556	S  
Si7  	O18  	1.609     	1_555	S  
Si8  	O22  	1.61      	1_555	S  
Si9  	O19  	1.61      	1_555	S  
Si9  	O1   	1.61      	16_555	S  
Si9  	O5   	1.61      	16_555	S  
O13  	Si1  	1.609     	8_555	S  
O14  	Si2  	1.61      	8_555	S  
O15  	Si3  	1.61      	8_555	S  
O16  	Si5  	1.609     	8_555	S  
O17  	Si6  	1.61      	8_555	S  
O18  	Si7  	1.609     	8_555	S  
O19  	Si9  	1.61      	8_555	S  
ZA2  	ZA4  	1.828     	1_555	S  
ZA2  	ZA8  	1.773     	1_555	S  
ZA4  	ZA5  	2.672     	1_555	S  
ZA5  	ZA17 	2.869     	1_555	S  
ZA5  	ZA6  	2.979     	1_555	S  
ZA6  	ZA10 	2.817     	12_456	S  
ZA8  	ZA13 	2.806     	1_545	S  
ZA12 	ZA13 	2.813     	1_555	S  
ZA12 	ZA3  	1.745     	9_455	S  
ZA13 	ZA8  	2.806     	1_565	S  
ZA13 	ZA18 	2.853     	9_455	S  
ZA14 	ZA14 	4.114     	11_556	S  
ZA14 	ZA14 	4.114     	11_456	S  
ZA17 	ZA15 	2.848     	9_445	S  
ZA19 	ZA3  	1.718     	11_556	S  
ZA19 	ZA15 	2.862     	9_445	S  
O20  	Si3  	1.606     	13_556	S  
O21  	Si4  	1.609     	8_655	S  
O22  	Si8  	1.61      	8_655	S  
ZA1  	ZA16 	1.66      	1_555	S  
ZA1  	ZA9  	1.637     	1_555	S  
ZA3  	ZA12 	1.745     	9_545	S  
ZA3  	ZA19 	1.718     	11_556	S  
ZA9  	ZA10 	2.843     	1_555	S  
ZA10 	ZA6  	2.817     	12_556	S  
ZA15 	ZA17 	2.848     	9_555	S  
ZA15 	ZA19 	2.862     	9_555	S  
ZA15 	ZA16 	2.831     	1_565	S  
ZA16 	ZA15 	2.831     	1_545	S  
ZA18 	ZA13 	2.853     	9_545	S  
O23  	Si5  	1.611     	11_556	S  
O24  	Si6  	1.608     	11_556	S  
ZA7  	ZA11 	4.114     	1_555	S  
ZA7  	ZA11 	4.114     	1_455	S  
ZA11 	ZA7  	4.114     	1_655	S  
