data_-HOS-PPT1
_audit_creation_method             	Write2Cif_ToposPro  
_symmetry_space_group_name_H-M     	CMMM                
_symmetry_Int_Tables_number        	65                  
_symmetry_cell_setting             	orthorhombic system 
_cell_length_a                     	14.1579             
_cell_length_b                     	51.0783             
_cell_length_c                     	12.8142             
_cell_angle_alpha                  	90.0                
_cell_angle_beta                   	90.0                
_cell_angle_gamma                  	90.0                
loop_
_symmetry_equiv_pos_as_xyz
x,y,z
-x,-y,z
-x,y,-z
x,-y,-z
-x,-y,-z
x,y,-z
x,-y,z
-x,y,z
x+1/2,y+1/2,z
-x+1/2,-y+1/2,z
-x+1/2,y+1/2,-z
x+1/2,-y+1/2,-z
-x+1/2,-y+1/2,-z
x+1/2,y+1/2,-z
x+1/2,-y+1/2,z
-x+1/2,y+1/2,z
loop_
_atom_site_label
_atom_site_type_symbol
_atom_site_fract_x
_atom_site_fract_y
_atom_site_fract_z
O1        	O         	0.17544   	0.04911   	0.18597   
O2        	O         	0.32038   	0.08138   	0.18588   
O3        	O         	0.17487   	0.09029   	0.307     
O4        	O         	0.24301   	0.22342   	0.1932    
O5        	O         	0.17373   	0.1858    	0.30735   
O6        	O         	0.15922   	0.09615   	0.10275   
O7        	O         	0.17592   	0.32283   	0.19266   
O8        	O         	0.11449   	0.1379    	0.34347   
O9        	O         	0.15865   	0.1832    	0.10251   
O10       	O         	0.13645   	0.37067   	0.13078   
O11       	O         	0.1345    	0.25233   	0.12422   
Si1       	Si        	0.20708   	0.07932   	0.19476   
Si2       	Si        	0.10781   	0.16793   	0.38076   
Si3       	Si        	0.10707   	0.02987   	0.12123   
Si4       	Si        	0.10766   	0.10782   	0.38029   
Si5       	Si        	0.22452   	0.19234   	0.19805   
Si6       	Si        	0.39378   	0.09906   	0.12062   
Si7       	Si        	0.1081    	0.34028   	0.11967   
ZA11      	ZA        	0.20671   	0.13566   	0.17427   
O12       	O         	0.12319   	0.13953   	0.0       
O13       	O         	0.1112    	0.03801   	0.0       
O14       	O         	0.11995   	0.33127   	0.0       
O15       	O         	0.38959   	0.09033   	0.0       
Si8       	Si        	0.11046   	0.10823   	0.0       
Si9       	Si        	0.11048   	0.17082   	0.0       
ZA9       	ZA        	0.26555   	0.13399   	0.0       
O16       	O         	0.14132   	0.0       	0.13469   
O17       	O         	0.0       	0.1782    	0.0       
O18       	O         	0.0       	0.10083   	0.0       
ZA6       	ZA        	0.0       	0.06532   	0.0       
ZA10      	ZA        	0.0       	0.26806   	0.0       
O19       	O         	0.0       	0.17774   	0.37226   
O20       	O         	0.0       	0.0327    	0.16224   
O21       	O         	0.0       	0.09799   	0.36986   
O22       	O         	0.0       	0.33631   	0.15532   
O23       	O         	0.0       	0.40478   	0.16304   
ZA3       	ZA        	0.0       	0.13774   	0.19231   
ZA12      	ZA        	0.0       	0.08131   	0.17407   
ZA13      	ZA        	0.0       	0.23817   	0.17034   
O24       	O         	0.1427    	0.17024   	0.5       
O25       	O         	0.14107   	0.10538   	0.5       
O26       	O         	0.25      	0.25      	0.0       
Si10      	Si        	0.25      	0.25      	0.12551   
ZA1       	ZA        	0.0       	0.13788   	0.5       
ZA2       	ZA        	0.0       	0.5       	0.5       
ZA4       	ZA        	0.0       	0.0       	0.0       
ZA5       	ZA        	0.0       	0.0       	0.5       
ZA7       	ZA        	0.5       	0.0       	0.0       
ZA8       	ZA        	0.5       	0.12939   	0.0       
loop_
_topos_bond_atom_site_label_1
_topos_bond_atom_site_label_2
_topos_bond_site_symmetry_1
_topos_bond_site_symmetry_2
_topos_bond_distance
_topos_bond_type
O1   	Si3  	1_0_0_0   	1_0_0_0   	1.61   V    
O1   	Si1  	1_0_0_0   	1_0_0_0   	1.611  V    
O2   	Si6  	1_0_0_0   	1_0_0_0   	1.611  V    
O2   	Si1  	1_0_0_0   	1_0_0_0   	1.612  V    
O3   	Si4  	1_0_0_0   	1_0_0_0   	1.609  V    
O3   	Si1  	1_0_0_0   	1_0_0_0   	1.61   V    
O4   	Si5  	1_0_0_0   	1_0_0_0   	1.61   V    
O4   	Si10 	1_0_0_0   	1_0_0_0   	1.614  V    
O5   	Si2  	1_0_0_0   	1_0_0_0   	1.609  V    
O5   	Si5  	1_0_0_0   	1_0_0_0   	1.609  V    
O6   	Si1  	1_0_0_0   	1_0_0_0   	1.609  V    
O6   	Si8  	1_0_0_0   	1_0_0_0   	1.61   V    
O7   	Si7  	1_0_0_0   	1_0_0_0   	1.61   V    
O7   	Si5  	1_0_0_0   	10_0_0_0  	1.61   V    
O8   	Si2  	1_0_0_0   	1_0_0_0   	1.609  V    
O8   	Si4  	1_0_0_0   	1_0_0_0   	1.61   V    
O9   	Si5  	1_0_0_0   	1_0_0_0   	1.608  V    
O9   	Si9  	1_0_0_0   	1_0_0_0   	1.609  V    
O10  	Si7  	1_0_0_0   	1_0_0_0   	1.61   V    
O10  	Si6  	1_0_0_0   	10_0_0_0  	1.61   V    
O11  	Si10 	1_0_0_0   	1_0_0_0   	1.64   V    
Si2  	O24  	1_0_0_0   	1_0_0_0   	1.61   V    
Si2  	O19  	1_0_0_0   	1_0_0_0   	1.61   V    
Si3  	O20  	1_0_0_0   	1_0_0_0   	1.611  V    
Si3  	O13  	1_0_0_0   	1_0_0_0   	1.609  V    
Si3  	O16  	1_0_0_0   	1_0_0_0   	1.61   V    
Si4  	O21  	1_0_0_0   	1_0_0_0   	1.61   V    
Si4  	O25  	1_0_0_0   	1_0_0_0   	1.61   V    
Si5  	O7   	1_0_0_0   	10_0_0_0  	1.61   V    
Si6  	O15  	1_0_0_0   	1_0_0_0   	1.61   V    
Si6  	O10  	1_0_0_0   	10_0_0_0  	1.61   V    
Si6  	O23  	1_0_0_0   	10_0_0_0  	1.611  V    
Si7  	O14  	1_0_0_0   	1_0_0_0   	1.61   V    
Si7  	O22  	1_0_0_0   	1_0_0_0   	1.61   V    
ZA11 	ZA3  	1_0_0_0   	1_0_0_0   	2.938  V    
ZA11 	ZA9  	1_0_0_0   	1_0_0_0   	2.385  V    
O12  	Si9  	1_0_0_0   	1_0_0_0   	1.608  V    
O12  	Si8  	1_0_0_0   	1_0_0_0   	1.609  V    
O13  	Si3  	1_0_0_0   	6_0_0_0   	1.609  V    
O14  	Si7  	1_0_0_0   	6_0_0_0   	1.61   V    
O15  	Si6  	1_0_0_0   	6_0_0_0   	1.61   V    
Si8  	O6   	1_0_0_0   	6_0_0_0   	1.61   V    
Si8  	O18  	1_0_0_0   	1_0_0_0   	1.609  V    
Si9  	O9   	1_0_0_0   	6_0_0_0   	1.609  V    
Si9  	O17  	1_0_0_0   	1_0_0_0   	1.609  V    
ZA9  	ZA11 	1_0_0_0   	6_0_0_0   	2.385  V    
O16  	Si3  	1_0_0_0   	7_0_0_0   	1.61   V    
O17  	Si9  	1_0_0_0   	3_0_0_0   	1.609  V    
O18  	Si8  	1_0_0_0   	3_0_0_0   	1.609  V    
ZA6  	ZA12 	1_0_0_0   	3_0_0_0   	2.375  V    
ZA10 	ZA13 	1_0_0_0   	1_0_0_0   	2.664  V    
ZA10 	ZA13 	1_0_0_0   	3_0_0_0   	2.664  V    
O19  	Si2  	1_0_0_0   	8_0_0_0   	1.61   V    
O20  	Si3  	1_0_0_0   	8_0_0_0   	1.611  V    
O21  	Si4  	1_0_0_0   	8_0_0_0   	1.61   V    
O22  	Si7  	1_0_0_0   	8_0_0_0   	1.61   V    
O23  	Si6  	1_0_0_0   	10_0_0_0  	1.611  V    
O23  	Si6  	1_0_0_0   	15_-1_0_0 	1.611  V    
ZA3  	ZA12 	1_0_0_0   	1_0_0_0   	2.892  V    
ZA3  	ZA11 	1_0_0_0   	8_0_0_0   	2.938  V    
ZA13 	ZA2  	1_0_0_0   	1_0_0_0   	14.025 V    
O24  	Si2  	1_0_0_0   	6_0_0_1   	1.61   V    
O25  	Si4  	1_0_0_0   	6_0_0_1   	1.61   V    
O26  	Si10 	1_0_0_0   	1_0_0_0   	1.608  V    
O26  	Si10 	1_0_0_0   	6_0_0_0   	1.608  V    
Si10 	O4   	1_0_0_0   	10_0_0_0  	1.614  V    
Si10 	O11  	1_0_0_0   	10_0_0_0  	1.64   V    
ZA2  	ZA13 	1_0_0_0   	3_0_0_1   	14.025 V    
ZA2  	ZA13 	1_0_0_0   	4_0_1_1   	14.025 V    
ZA2  	ZA13 	1_0_0_0   	2_0_1_0   	14.025 V    
ZA2  	ZA2  	1_0_0_0   	9_0_-1_0  	26.502 V    
ZA2  	ZA2  	1_0_0_0   	9_-1_0_0  	26.502 V    
ZA2  	ZA2  	1_0_0_0   	9_-1_-1_0 	26.502 V    
ZA2  	ZA2  	1_0_0_0   	9_0_0_0   	26.502 V    
ZA2  	ZA7  	1_0_0_0   	9_-1_0_1  	6.407  V    
ZA2  	ZA7  	1_0_0_0   	9_-1_0_0  	6.407  V    
ZA2  	ZA5  	1_0_0_0   	9_0_0_0   	7.079  V    
ZA2  	ZA5  	1_0_0_0   	9_-1_0_0  	7.079  V    
ZA5  	ZA2  	1_0_0_0   	9_-1_-1_0 	7.079  V    
ZA5  	ZA2  	1_0_0_0   	9_0_-1_0  	7.079  V    
ZA7  	ZA2  	1_0_0_0   	9_0_-1_-1 	6.407  V    
ZA7  	ZA2  	1_0_0_0   	9_0_-1_0  	6.407  V    
