data_-SSO-NT
_audit_creation_method             	Write2Cif_ToposPro  
_symmetry_space_group_name_H-M     	P21/C               
_symmetry_Int_Tables_number        	14                  
_symmetry_cell_setting             	monoclinic system   
_cell_length_a                     	19.902              
_cell_length_b                     	10.1561             
_cell_length_c                     	24.6892             
_cell_angle_alpha                  	90.0                
_cell_angle_beta                   	105.88              
_cell_angle_gamma                  	90.0                
loop_
_symmetry_equiv_pos_as_xyz
x,y,z
-x,y+1/2,-z+1/2
-x,-y,-z
x,-y+1/2,z+1/2
loop_
_atom_site_label
_atom_site_type_symbol
_atom_site_fract_x
_atom_site_fract_y
_atom_site_fract_z
O1        	O         	0.06557   	0.0512    	0.16385   
O2        	O         	0.0107    	0.61232   	0.43785   
O3        	O         	0.05219   	0.2992    	0.13034   
O4        	O         	0.12594   	0.13313   	0.08772   
O5        	O         	0.12749   	0.94821   	0.01344   
O6        	O         	0.11553   	0.3028    	0.48287   
O7        	O         	0.23476   	0.10741   	0.04721   
O8        	O         	0.37174   	0.12331   	0.08098   
O9        	O         	0.29938   	0.2941    	0.00744   
O10       	O         	0.30985   	0.45117   	0.47753   
O11       	O         	0.44088   	0.03468   	0.18085   
O12       	O         	0.49384   	0.57356   	0.39719   
O13       	O         	0.41734   	0.87871   	0.09251   
O14       	O         	0.07615   	0.36488   	0.23647   
O15       	O         	0.04719   	0.91166   	0.33348   
O16       	O         	0.06129   	0.54941   	0.15918   
O17       	O         	0.12573   	0.62592   	0.08503   
O18       	O         	0.06787   	0.80168   	0.13607   
O19       	O         	0.01075   	0.14269   	0.43928   
O20       	O         	0.12666   	0.45101   	0.00695   
O21       	O         	0.10221   	0.79811   	0.47988   
O22       	O         	0.22777   	0.62552   	0.0369    
O23       	O         	0.30669   	0.95996   	0.47451   
O24       	O         	0.36397   	0.64161   	0.07428   
O25       	O         	0.29675   	0.79458   	0.99135   
O26       	O         	0.49481   	0.67969   	0.07624   
O27       	O         	0.45689   	0.69558   	0.1701    
O28       	O         	0.15947   	0.29319   	0.3343    
O29       	O         	0.13644   	0.54292   	0.31173   
O30       	O         	0.03624   	0.39366   	0.32912   
O31       	O         	0.12473   	0.13155   	0.40576   
O32       	O         	0.15573   	0.0383    	0.31711   
O33       	O         	0.25485   	0.1426    	0.39992   
O34       	O         	0.38893   	0.14081   	0.45129   
O35       	O         	0.49625   	0.25057   	0.02424   
O36       	O         	0.16511   	0.78804   	0.34194   
O37       	O         	0.25177   	0.60053   	0.39068   
O38       	O         	0.12958   	0.62091   	0.41132   
O39       	O         	0.38655   	0.61788   	0.43843   
O40       	O         	0.08818   	0.86656   	0.24221   
Si1       	Si        	0.05851   	0.14918   	0.11129   
Si2       	Si        	0.15103   	0.09647   	0.03285   
Si3       	Si        	0.30388   	0.14331   	0.02836   
Si4       	Si        	0.43383   	0.02769   	0.11439   
Si5       	Si        	0.03548   	0.40615   	0.17302   
Si6       	Si        	0.06078   	0.65499   	0.11042   
Si7       	Si        	0.14541   	0.6007    	0.0268    
Si8       	Si        	0.29858   	0.65065   	0.01896   
Si9       	Si        	0.43355   	0.72421   	0.10343   
Si10      	Si        	0.10162   	0.39861   	0.30261   
Si11      	Si        	0.17404   	0.15162   	0.36453   
Si12      	Si        	0.09451   	0.15664   	0.45902   
Si13      	Si        	0.3123    	0.11245   	0.45857   
Si14      	Si        	0.47277   	0.14206   	0.47471   
Si15      	Si        	0.17085   	0.6383    	0.36411   
Si16      	Si        	0.09267   	0.64608   	0.4608    
Si17      	Si        	0.31157   	0.59403   	0.4497    
Si18      	Si        	0.47032   	0.61015   	0.45283   
Si19      	Si        	0.11354   	0.90103   	0.30829   
Si20      	Si        	0.04655   	0.90367   	0.17848   
ZA1       	ZA        	0.9998    	0.65112   	0.25003   
ZA2       	ZA        	0.92931   	0.40037   	0.10124   
ZA3       	ZA        	0.93124   	0.90029   	0.10181   
ZA4       	ZA        	0.19027   	0.11578   	0.93562   
ZA5       	ZA        	0.49979   	0.37736   	0.25088   
ZA6       	ZA        	0.41358   	0.88674   	0.03002   
ZA7       	ZA        	0.19039   	0.6168    	0.93453   
ZA8       	ZA        	0.01524   	0.37979   	0.03564   
ZA9       	ZA        	0.01582   	0.8816    	0.03567   
ZA10      	ZA        	0.5007    	0.13703   	0.25266   
O41       	O         	0.5       	0.0       	0.5       
O42       	O         	0.5       	0.5       	0.5       
loop_
_topos_bond_atom_site_label_1
_topos_bond_atom_site_label_2
_topos_bond_site_symmetry_1
_topos_bond_site_symmetry_2
_topos_bond_distance
_topos_bond_type
O1   	Si1  	1_0_0_0   	1_0_0_0   	1.611  V    
O1   	Si20 	1_0_0_0   	1_0_-1_0  	1.61   V    
O2   	Si16 	1_0_0_0   	1_0_0_0   	1.611  V    
O2   	Si1  	1_0_0_0   	2_0_0_0   	1.611  V    
O3   	Si1  	1_0_0_0   	1_0_0_0   	1.61   V    
O3   	Si5  	1_0_0_0   	1_0_0_0   	1.61   V    
O4   	Si2  	1_0_0_0   	1_0_0_0   	1.61   V    
O4   	Si1  	1_0_0_0   	1_0_0_0   	1.61   V    
O5   	Si16 	1_0_0_0   	4_0_1_-1  	1.61   V    
O5   	Si2  	1_0_0_0   	1_0_1_0   	1.61   V    
O6   	Si12 	1_0_0_0   	1_0_0_0   	1.609  V    
O6   	Si2  	1_0_0_0   	4_0_0_0   	1.61   V    
O7   	Si2  	1_0_0_0   	1_0_0_0   	1.61   V    
O7   	Si3  	1_0_0_0   	1_0_0_0   	1.61   V    
O8   	Si4  	1_0_0_0   	1_0_0_0   	1.61   V    
O8   	Si3  	1_0_0_0   	1_0_0_0   	1.61   V    
O9   	Si3  	1_0_0_0   	1_0_0_0   	1.611  V    
O9   	Si13 	1_0_0_0   	4_0_0_-1  	1.61   V    
O10  	Si17 	1_0_0_0   	1_0_0_0   	1.61   V    
O10  	Si3  	1_0_0_0   	4_0_0_0   	1.61   V    
O11  	Si4  	1_0_0_0   	1_0_0_0   	1.61   V    
O12  	Si18 	1_0_0_0   	1_0_0_0   	1.611  V    
O12  	Si4  	1_0_0_0   	2_1_0_0   	1.611  V    
O13  	Si9  	1_0_0_0   	1_0_0_0   	1.61   V    
O13  	Si4  	1_0_0_0   	1_0_1_0   	1.61   V    
O14  	Si10 	1_0_0_0   	1_0_0_0   	1.609  V    
O14  	Si5  	1_0_0_0   	1_0_0_0   	1.61   V    
O15  	Si19 	1_0_0_0   	1_0_0_0   	1.61   V    
O15  	Si5  	1_0_0_0   	2_0_0_0   	1.61   V    
O16  	Si6  	1_0_0_0   	1_0_0_0   	1.61   V    
O16  	Si5  	1_0_0_0   	1_0_0_0   	1.61   V    
O17  	Si7  	1_0_0_0   	1_0_0_0   	1.611  V    
O17  	Si6  	1_0_0_0   	1_0_0_0   	1.611  V    
O18  	Si6  	1_0_0_0   	1_0_0_0   	1.61   V    
O18  	Si20 	1_0_0_0   	1_0_0_0   	1.61   V    
O19  	Si12 	1_0_0_0   	1_0_0_0   	1.61   V    
O19  	Si6  	1_0_0_0   	2_0_-1_0  	1.61   V    
O20  	Si7  	1_0_0_0   	1_0_0_0   	1.61   V    
O20  	Si12 	1_0_0_0   	4_0_0_-1  	1.61   V    
O21  	Si16 	1_0_0_0   	1_0_0_0   	1.61   V    
O21  	Si7  	1_0_0_0   	4_0_1_0   	1.61   V    
O22  	Si7  	1_0_0_0   	1_0_0_0   	1.609  V    
O22  	Si8  	1_0_0_0   	1_0_0_0   	1.609  V    
O23  	Si8  	1_0_0_0   	4_0_1_0   	1.609  V    
O23  	Si13 	1_0_0_0   	1_0_1_0   	1.609  V    
O24  	Si9  	1_0_0_0   	1_0_0_0   	1.611  V    
O24  	Si8  	1_0_0_0   	1_0_0_0   	1.611  V    
O25  	Si8  	1_0_0_0   	1_0_0_1   	1.609  V    
O25  	Si17 	1_0_0_0   	4_0_1_0   	1.609  V    
O26  	Si9  	1_0_0_0   	1_0_0_0   	1.609  V    
O26  	Si14 	1_0_0_0   	2_1_0_0   	1.609  V    
O27  	Si9  	1_0_0_0   	1_0_0_0   	1.61   V    
O28  	Si11 	1_0_0_0   	1_0_0_0   	1.609  V    
O28  	Si10 	1_0_0_0   	1_0_0_0   	1.61   V    
O29  	Si10 	1_0_0_0   	1_0_0_0   	1.61   V    
O29  	Si15 	1_0_0_0   	1_0_0_0   	1.611  V    
O30  	Si10 	1_0_0_0   	1_0_0_0   	1.609  V    
O30  	Si20 	1_0_0_0   	2_0_-1_0  	1.61   V    
O31  	Si11 	1_0_0_0   	1_0_0_0   	1.609  V    
O31  	Si12 	1_0_0_0   	1_0_0_0   	1.609  V    
O32  	Si11 	1_0_0_0   	1_0_0_0   	1.611  V    
O32  	Si19 	1_0_0_0   	1_0_-1_0  	1.611  V    
O33  	Si11 	1_0_0_0   	1_0_0_0   	1.609  V    
O33  	Si13 	1_0_0_0   	1_0_0_0   	1.61   V    
O34  	Si14 	1_0_0_0   	1_0_0_0   	1.61   V    
O34  	Si13 	1_0_0_0   	1_0_0_0   	1.61   V    
O35  	Si14 	1_0_0_0   	4_0_0_-1  	1.609  V    
O35  	Si18 	1_0_0_0   	2_1_-1_0  	1.61   V    
O36  	Si15 	1_0_0_0   	1_0_0_0   	1.61   V    
O36  	Si19 	1_0_0_0   	1_0_0_0   	1.611  V    
O37  	Si15 	1_0_0_0   	1_0_0_0   	1.61   V    
O37  	Si17 	1_0_0_0   	1_0_0_0   	1.611  V    
O38  	Si15 	1_0_0_0   	1_0_0_0   	1.609  V    
O38  	Si16 	1_0_0_0   	1_0_0_0   	1.609  V    
O39  	Si18 	1_0_0_0   	1_0_0_0   	1.609  V    
O39  	Si17 	1_0_0_0   	1_0_0_0   	1.609  V    
O40  	Si19 	1_0_0_0   	1_0_0_0   	1.609  V    
O40  	Si20 	1_0_0_0   	1_0_0_0   	1.61   V    
Si1  	O2   	1_0_0_0   	2_0_-1_0  	1.611  V    
Si2  	O5   	1_0_0_0   	1_0_-1_0  	1.61   V    
Si2  	O6   	1_0_0_0   	4_0_0_-1  	1.61   V    
Si3  	O10  	1_0_0_0   	4_0_0_-1  	1.61   V    
Si4  	O12  	1_0_0_0   	2_1_-1_0  	1.611  V    
Si4  	O13  	1_0_0_0   	1_0_-1_0  	1.61   V    
Si5  	O15  	1_0_0_0   	2_0_-1_0  	1.61   V    
Si6  	O19  	1_0_0_0   	2_0_0_0   	1.61   V    
Si7  	O21  	1_0_0_0   	4_0_1_-1  	1.61   V    
Si8  	O23  	1_0_0_0   	4_0_1_-1  	1.609  V    
Si8  	O25  	1_0_0_0   	1_0_0_-1  	1.609  V    
Si12 	O20  	1_0_0_0   	4_0_0_0   	1.61   V    
Si13 	O9   	1_0_0_0   	4_0_0_0   	1.61   V    
Si13 	O23  	1_0_0_0   	1_0_-1_0  	1.609  V    
Si14 	O26  	1_0_0_0   	2_1_-1_0  	1.609  V    
Si14 	O35  	1_0_0_0   	4_0_0_0   	1.609  V    
Si14 	O41  	1_0_0_0   	1_0_0_0   	1.606  V    
Si16 	O5   	1_0_0_0   	4_0_1_0   	1.61   V    
Si17 	O25  	1_0_0_0   	4_0_1_-1  	1.609  V    
Si18 	O42  	1_0_0_0   	1_0_0_0   	1.606  V    
Si18 	O35  	1_0_0_0   	2_1_0_0   	1.61   V    
Si19 	O32  	1_0_0_0   	1_0_1_0   	1.611  V    
Si20 	O1   	1_0_0_0   	1_0_1_0   	1.61   V    
Si20 	O30  	1_0_0_0   	2_0_0_0   	1.61   V    
ZA2  	ZA7  	1_0_0_0   	3_1_1_1   	2.31   V    
ZA2  	ZA8  	1_0_0_0   	1_1_0_0   	2.666  V    
ZA3  	ZA4  	1_0_0_0   	3_1_1_1   	2.346  V    
ZA3  	ZA9  	1_0_0_0   	1_1_0_0   	2.653  V    
ZA4  	ZA3  	1_0_0_0   	3_1_1_1   	2.346  V    
ZA5  	ZA10 	1_0_0_0   	1_0_0_0   	2.441  V    
ZA5  	ZA10 	1_0_0_0   	2_1_0_0   	2.639  V    
ZA7  	ZA2  	1_0_0_0   	3_1_1_1   	2.31   V    
ZA8  	ZA2  	1_0_0_0   	1_-1_0_0  	2.666  V    
ZA8  	ZA8  	1_0_0_0   	3_0_1_0   	2.974  V    
ZA9  	ZA3  	1_0_0_0   	1_-1_0_0  	2.653  V    
ZA9  	ZA9  	1_0_0_0   	3_0_2_0   	2.945  V    
ZA10 	ZA5  	1_0_0_0   	2_1_-1_0  	2.639  V    
O41  	Si14 	1_0_0_0   	3_1_0_1   	1.606  V    
O42  	Si18 	1_0_0_0   	3_1_1_1   	1.606  V    
