data_CSV-PPT1
_audit_creation_method             	Write2Cif_ToposPro  
_symmetry_space_group_name_H-M     	P-1                 
_symmetry_Int_Tables_number        	2                   
_symmetry_cell_setting             	triclinic system    
_cell_length_a                     	13.027              
_cell_length_b                     	11.1822             
_cell_length_c                     	9.2189              
_cell_angle_alpha                  	92.35               
_cell_angle_beta                   	107.3               
_cell_angle_gamma                  	104.5               
loop_
_symmetry_equiv_pos_as_xyz
x,y,z
-x,-y,-z
loop_
_atom_site_label
_atom_site_type_symbol
_atom_site_fract_x
_atom_site_fract_y
_atom_site_fract_z
O1        	O         	0.23522   	0.50073   	0.0483    
O2        	O         	0.35815   	0.42043   	0.28854   
O3        	O         	0.31679   	0.63613   	0.31884   
O4        	O         	0.15481   	0.42942   	0.26755   
O5        	O         	0.36851   	0.68044   	0.96262   
O6        	O         	0.16879   	0.5738    	0.77454   
O7        	O         	0.32046   	0.44829   	0.83827   
O8        	O         	0.34409   	0.25571   	0.68677   
O9        	O         	0.4232    	0.48427   	0.63298   
O10       	O         	0.20446   	0.37782   	0.5497    
O11       	O         	0.11965   	0.56535   	0.47675   
O12       	O         	0.99254   	0.33633   	0.38182   
O13       	O         	0.32614   	0.01513   	0.65821   
O14       	O         	0.51802   	0.17604   	0.68701   
O15       	O         	0.43887   	0.15366   	0.92132   
O16       	O         	0.42937   	0.86219   	0.80594   
O17       	O         	0.2166    	0.78094   	0.64782   
O18       	O         	0.36831   	0.84023   	0.5051    
O19       	O         	0.4733    	0.31836   	0.15866   
O20       	O         	0.49459   	0.30109   	0.44978   
Si1       	Si        	0.26717   	0.49679   	0.23026   
Si2       	Si        	0.27274   	0.55021   	0.90534   
Si3       	Si        	0.32366   	0.3916    	0.67674   
Si4       	Si        	0.11722   	0.42648   	0.41902   
Si5       	Si        	0.40734   	0.15045   	0.73824   
Si6       	Si        	0.3344    	0.87371   	0.65293   
Si7       	Si        	0.12898   	0.64698   	0.63056   
Si8       	Si        	0.47609   	0.38923   	0.31597   
Si9       	Si        	0.4721    	0.76808   	0.92185   
Si10      	Si        	0.41851   	0.75018   	0.42197   
ZA1       	ZA        	0.31763   	0.61276   	0.61586   
ZA4       	ZA        	0.42758   	0.44095   	0.53711   
ZA2       	ZA        	0.0       	0.0       	0.0       
ZA3       	ZA        	0.5       	0.5       	0.0       
loop_
_topos_bond_atom_site_label_1
_topos_bond_atom_site_label_2
_topos_bond_site_symmetry_1
_topos_bond_site_symmetry_2
_topos_bond_distance
_topos_bond_type
O1   	Si1  	1_0_0_0   	1_0_0_0   	1.609  V    
O1   	Si2  	1_0_0_0   	1_0_0_-1  	1.609  V    
O2   	Si1  	1_0_0_0   	1_0_0_0   	1.609  V    
O2   	Si8  	1_0_0_0   	1_0_0_0   	1.61   V    
O3   	Si1  	1_0_0_0   	1_0_0_0   	1.609  V    
O3   	Si10 	1_0_0_0   	1_0_0_0   	1.61   V    
O4   	Si4  	1_0_0_0   	1_0_0_0   	1.61   V    
O4   	Si1  	1_0_0_0   	1_0_0_0   	1.611  V    
O5   	Si2  	1_0_0_0   	1_0_0_0   	1.61   V    
O5   	Si9  	1_0_0_0   	1_0_0_0   	1.61   V    
O6   	Si2  	1_0_0_0   	1_0_0_0   	1.61   V    
O6   	Si7  	1_0_0_0   	1_0_0_0   	1.61   V    
O7   	Si2  	1_0_0_0   	1_0_0_0   	1.61   V    
O7   	Si3  	1_0_0_0   	1_0_0_0   	1.611  V    
O8   	Si3  	1_0_0_0   	1_0_0_0   	1.609  V    
O8   	Si5  	1_0_0_0   	1_0_0_0   	1.609  V    
O9   	Si3  	1_0_0_0   	1_0_0_0   	1.61   V    
O9   	Si8  	1_0_0_0   	2_1_1_1   	1.61   V    
O10  	Si4  	1_0_0_0   	1_0_0_0   	1.609  V    
O10  	Si3  	1_0_0_0   	1_0_0_0   	1.609  V    
O11  	Si4  	1_0_0_0   	1_0_0_0   	1.61   V    
O11  	Si7  	1_0_0_0   	1_0_0_0   	1.611  V    
O12  	Si4  	1_0_0_0   	1_1_0_0   	1.61   V    
O12  	Si7  	1_0_0_0   	2_1_1_1   	1.611  V    
O13  	Si5  	1_0_0_0   	1_0_0_0   	1.611  V    
O13  	Si6  	1_0_0_0   	1_0_-1_0  	1.611  V    
O14  	Si5  	1_0_0_0   	1_0_0_0   	1.61   V    
O14  	Si10 	1_0_0_0   	2_1_1_1   	1.611  V    
O15  	Si5  	1_0_0_0   	1_0_0_0   	1.611  V    
O15  	Si9  	1_0_0_0   	2_1_1_2   	1.61   V    
O16  	Si9  	1_0_0_0   	1_0_0_0   	1.61   V    
O16  	Si6  	1_0_0_0   	1_0_0_0   	1.611  V    
O17  	Si7  	1_0_0_0   	1_0_0_0   	1.609  V    
O17  	Si6  	1_0_0_0   	1_0_0_0   	1.609  V    
O18  	Si6  	1_0_0_0   	1_0_0_0   	1.61   V    
O18  	Si10 	1_0_0_0   	1_0_0_0   	1.61   V    
O19  	Si8  	1_0_0_0   	1_0_0_0   	1.61   V    
O19  	Si9  	1_0_0_0   	2_1_1_1   	1.61   V    
O20  	Si8  	1_0_0_0   	1_0_0_0   	1.61   V    
O20  	Si10 	1_0_0_0   	2_1_1_1   	1.61   V    
Si2  	O1   	1_0_0_0   	1_0_0_1   	1.609  V    
Si4  	O12  	1_0_0_0   	1_-1_0_0  	1.61   V    
Si6  	O13  	1_0_0_0   	1_0_1_0   	1.611  V    
Si7  	O12  	1_0_0_0   	2_1_1_1   	1.611  V    
Si8  	O9   	1_0_0_0   	2_1_1_1   	1.61   V    
Si9  	O15  	1_0_0_0   	2_1_1_2   	1.61   V    
Si9  	O19  	1_0_0_0   	2_1_1_1   	1.61   V    
Si10 	O14  	1_0_0_0   	2_1_1_1   	1.611  V    
Si10 	O20  	1_0_0_0   	2_1_1_1   	1.61   V    
ZA1  	ZA4  	1_0_0_0   	1_0_0_0   	2.855  V    
ZA4  	ZA4  	1_0_0_0   	2_1_1_1   	2.317  V    
ZA2  	ZA2  	1_0_0_0   	1_0_-1_0  	11.182 V    
ZA2  	ZA2  	1_0_0_0   	1_0_1_0   	11.182 V    
ZA2  	ZA2  	1_0_0_0   	1_0_0_-1  	9.219  V    
ZA2  	ZA2  	1_0_0_0   	1_0_0_1   	9.219  V    
