data_EWT-PPT1
_audit_creation_method             	Write2Cif_ToposPro  
_symmetry_space_group_name_H-M     	P31C                
_symmetry_Int_Tables_number        	159                 
_symmetry_cell_setting             	trigonal system     
_cell_length_a                     	19.8011             
_cell_length_b                     	19.8011             
_cell_length_c                     	14.1878             
_cell_angle_alpha                  	90.0                
_cell_angle_beta                   	90.0                
_cell_angle_gamma                  	120.0               
loop_
_symmetry_equiv_pos_as_xyz
x,y,z
-y,x-y,z
-x+y,-x,z
y,x,z+1/2
x-y,-y,z+1/2
-x,-x+y,z+1/2
loop_
_atom_site_label
_atom_site_type_symbol
_atom_site_fract_x
_atom_site_fract_y
_atom_site_fract_z
O1        	O         	0.87521   	0.45918   	0.54804   
O2        	O         	0.9152    	0.4212    	0.7077    
O3        	O         	0.85445   	0.31883   	0.57213   
O4        	O         	0.71135   	0.28954   	0.60233   
O5        	O         	0.73469   	0.1832    	0.52434   
O6        	O         	0.76863   	0.21769   	0.70297   
O7        	O         	0.63993   	0.12301   	0.38004   
O8        	O         	0.64042   	0.03187   	0.5141    
O9        	O         	0.72999   	0.01498   	0.63758   
O10       	O         	0.89555   	0.48225   	0.0427    
O11       	O         	0.9523    	0.45773   	0.88694   
O12       	O         	0.86188   	0.34013   	0.99561   
O13       	O         	0.74367   	0.33397   	0.9044    
O14       	O         	0.71839   	0.23883   	0.04624   
O15       	O         	0.773     	0.21882   	0.88705   
O16       	O         	0.66941   	0.15159   	0.19906   
O17       	O         	0.72084   	0.10759   	0.05582   
O18       	O         	0.75167   	0.01326   	0.95787   
O19       	O         	0.80276   	0.99963   	0.7837    
O20       	O         	0.99667   	0.43881   	0.55263   
O21       	O         	0.71174   	0.06117   	0.28731   
O22       	O         	0.63864   	0.13676   	0.79942   
O23       	O         	0.74257   	0.09132   	0.79465   
O24       	O         	0.55296   	0.98824   	0.75517   
Si1       	Si        	0.91111   	0.40998   	0.595     
Si2       	Si        	0.7675    	0.25253   	0.60091   
Si3       	Si        	0.64947   	0.11566   	0.49164   
Si4       	Si        	0.73147   	0.01139   	0.75088   
Si5       	Si        	0.92844   	0.43082   	0.99469   
Si6       	Si        	0.77463   	0.28303   	0.95811   
Si7       	Si        	0.67341   	0.1508    	0.08569   
Si8       	Si        	0.73046   	0.16587   	0.796     
Si9       	Si        	0.55097   	0.06503   	0.78803   
Si10      	Si        	0.44053   	0.35306   	0.28092   
Si11      	Si        	0.68113   	0.98165   	0.54152   
ZA1       	ZA        	0.61228   	0.03712   	0.64253   
ZA3       	ZA        	0.13669   	0.51349   	0.78792   
O25       	O         	0.666667  	0.333333  	0.75341   
Si12      	Si        	0.666667  	0.333333  	0.64008   
Si13      	Si        	0.666667  	0.333333  	0.86675   
ZA4       	ZA        	0.666667  	0.333333  	0.28381   
ZA2       	ZA        	0.0       	0.0       	0.80242   
loop_
_topos_bond_atom_site_label_1
_topos_bond_atom_site_label_2
_topos_bond_site_symmetry_1
_topos_bond_site_symmetry_2
_topos_bond_distance
_topos_bond_type
O1   	Si1  	1_0_0_0   	1_0_0_0   	1.61   V    
O1   	Si3  	1_0_0_0   	2_1_0_0   	1.609  V    
O2   	Si1  	1_0_0_0   	1_0_0_0   	1.611  V    
O2   	Si9  	1_0_0_0   	2_1_0_0   	1.61   V    
O3   	Si2  	1_0_0_0   	1_0_0_0   	1.611  V    
O3   	Si1  	1_0_0_0   	1_0_0_0   	1.611  V    
O4   	Si2  	1_0_0_0   	1_0_0_0   	1.609  V    
O4   	Si12 	1_0_0_0   	1_0_0_0   	1.609  V    
O5   	Si3  	1_0_0_0   	1_0_0_0   	1.611  V    
O5   	Si2  	1_0_0_0   	1_0_0_0   	1.611  V    
O6   	Si2  	1_0_0_0   	1_0_0_0   	1.609  V    
O6   	Si8  	1_0_0_0   	1_0_0_0   	1.61   V    
O7   	Si3  	1_0_0_0   	1_0_0_0   	1.61   V    
O7   	Si10 	1_0_0_0   	2_1_0_0   	1.609  V    
O8   	Si3  	1_0_0_0   	1_0_0_0   	1.609  V    
O8   	Si11 	1_0_0_0   	1_0_-1_0  	1.61   V    
O9   	Si4  	1_0_0_0   	1_0_0_0   	1.61   V    
O9   	Si11 	1_0_0_0   	1_0_-1_0  	1.61   V    
O10  	Si7  	1_0_0_0   	2_1_0_0   	1.608  V    
O10  	Si5  	1_0_0_0   	1_0_0_-1  	1.609  V    
O11  	Si5  	1_0_0_0   	1_0_0_0   	1.61   V    
O11  	Si9  	1_0_0_0   	2_1_0_0   	1.61   V    
O12  	Si6  	1_0_0_0   	1_0_0_0   	1.61   V    
O12  	Si5  	1_0_0_0   	1_0_0_0   	1.611  V    
O13  	Si13 	1_0_0_0   	1_0_0_0   	1.61   V    
O13  	Si6  	1_0_0_0   	1_0_0_0   	1.61   V    
O14  	Si7  	1_0_0_0   	1_0_0_0   	1.61   V    
O14  	Si6  	1_0_0_0   	1_0_0_-1  	1.611  V    
O15  	Si6  	1_0_0_0   	1_0_0_0   	1.61   V    
O15  	Si8  	1_0_0_0   	1_0_0_0   	1.611  V    
O16  	Si7  	1_0_0_0   	1_0_0_0   	1.611  V    
O16  	Si10 	1_0_0_0   	2_1_0_0   	1.611  V    
O17  	Si7  	1_0_0_0   	1_0_0_0   	1.612  V    
O17  	Si11 	1_0_0_0   	5_1_1_-1  	1.611  V    
O18  	Si11 	1_0_0_0   	5_1_1_0   	1.61   V    
O19  	Si4  	1_0_0_0   	1_0_1_0   	1.61   V    
O20  	Si1  	1_0_0_0   	1_0_0_0   	1.609  V    
O20  	Si5  	1_0_0_0   	6_2_1_-1  	1.61   V    
O21  	Si10 	1_0_0_0   	2_1_0_0   	1.611  V    
O21  	Si4  	1_0_0_0   	5_0_0_-1  	1.611  V    
O22  	Si9  	1_0_0_0   	1_0_0_0   	1.61   V    
O22  	Si8  	1_0_0_0   	1_0_0_0   	1.61   V    
O23  	Si8  	1_0_0_0   	1_0_0_0   	1.61   V    
O23  	Si4  	1_0_0_0   	1_0_0_0   	1.61   V    
O24  	Si10 	1_0_0_0   	6_1_1_0   	1.61   V    
O24  	Si9  	1_0_0_0   	1_0_1_0   	1.61   V    
Si3  	O1   	1_0_0_0   	3_1_1_0   	1.609  V    
Si4  	O19  	1_0_0_0   	1_0_-1_0  	1.61   V    
Si4  	O21  	1_0_0_0   	5_0_0_0   	1.611  V    
Si5  	O10  	1_0_0_0   	1_0_0_1   	1.609  V    
Si5  	O20  	1_0_0_0   	6_2_1_0   	1.61   V    
Si6  	O14  	1_0_0_0   	1_0_0_1   	1.611  V    
Si7  	O10  	1_0_0_0   	3_1_1_0   	1.608  V    
Si9  	O2   	1_0_0_0   	3_1_1_0   	1.61   V    
Si9  	O11  	1_0_0_0   	3_1_1_0   	1.61   V    
Si9  	O24  	1_0_0_0   	1_0_-1_0  	1.61   V    
Si10 	O7   	1_0_0_0   	3_1_1_0   	1.609  V    
Si10 	O16  	1_0_0_0   	3_1_1_0   	1.611  V    
Si10 	O21  	1_0_0_0   	3_1_1_0   	1.611  V    
Si10 	O24  	1_0_0_0   	6_1_0_-1  	1.61   V    
Si11 	O8   	1_0_0_0   	1_0_1_0   	1.61   V    
Si11 	O9   	1_0_0_0   	1_0_1_0   	1.61   V    
Si11 	O17  	1_0_0_0   	5_0_1_0   	1.611  V    
Si11 	O18  	1_0_0_0   	5_0_1_-1  	1.61   V    
ZA3  	ZA2  	1_0_0_0   	1_0_0_0   	9.123  V    
ZA3  	ZA4  	1_0_0_0   	4_0_0_0   	3.543  V    
O25  	Si12 	1_0_0_0   	1_0_0_0   	1.608  V    
O25  	Si13 	1_0_0_0   	1_0_0_0   	1.608  V    
Si12 	O4   	1_0_0_0   	2_1_0_0   	1.609  V    
Si12 	O4   	1_0_0_0   	3_1_1_0   	1.609  V    
Si13 	O13  	1_0_0_0   	2_1_0_0   	1.61   V    
Si13 	O13  	1_0_0_0   	3_1_1_0   	1.61   V    
ZA4  	ZA3  	1_0_0_0   	4_0_0_-1  	3.543  V    
ZA4  	ZA3  	1_0_0_0   	6_1_0_-1  	3.543  V    
ZA4  	ZA3  	1_0_0_0   	5_1_1_-1  	3.543  V    
ZA2  	ZA3  	1_0_0_0   	2_0_0_0   	9.123  V    
ZA2  	ZA3  	1_0_0_0   	3_0_0_0   	9.123  V    
ZA2  	ZA2  	1_0_0_0   	4_0_0_-1  	7.094  V    
ZA2  	ZA2  	1_0_0_0   	4_0_0_0   	7.094  V    
