data_HZF-NT
_audit_creation_method             	Write2Cif_ToposPro  
_symmetry_space_group_name_H-M     	C2/C                
_symmetry_Int_Tables_number        	15                  
_symmetry_cell_setting             	monoclinic system   
_cell_length_a                     	25.2644             
_cell_length_b                     	24.8715             
_cell_length_c                     	14.5262             
_cell_angle_alpha                  	90.0                
_cell_angle_beta                   	104.64              
_cell_angle_gamma                  	90.0                
loop_
_symmetry_equiv_pos_as_xyz
x,y,z
-x,y,-z+1/2
-x,-y,-z
x,-y,z+1/2
x+1/2,y+1/2,z
-x+1/2,y+1/2,-z+1/2
-x+1/2,-y+1/2,-z
x+1/2,-y+1/2,z+1/2
loop_
_atom_site_label
_atom_site_type_symbol
_atom_site_fract_x
_atom_site_fract_y
_atom_site_fract_z
O1        	O         	0.05373   	0.24001   	0.77869   
O2        	O         	0.58397   	0.32232   	0.60544   
O3        	O         	0.32883   	0.38744   	0.26778   
O4        	O         	0.19611   	0.05648   	0.06265   
O5        	O         	0.49684   	0.33462   	0.33903   
O6        	O         	0.39467   	0.42595   	0.8857    
O7        	O         	0.42949   	0.41195   	0.35885   
O8        	O         	0.52584   	0.61216   	0.18233   
O9        	O         	0.34902   	0.47879   	0.36014   
O10       	O         	0.45277   	0.53741   	0.18559   
O11       	O         	0.47204   	0.43555   	0.159     
O12       	O         	0.38119   	0.46409   	0.20269   
O13       	O         	0.39577   	0.48758   	0.03366   
O14       	O         	0.51514   	0.39013   	0.49775   
O15       	O         	0.17605   	0.15993   	0.05938   
O16       	O         	0.34738   	0.302     	0.17415   
O17       	O         	0.22287   	0.3727    	0.91522   
O18       	O         	0.16083   	0.25336   	0.13135   
O19       	O         	0.13913   	0.30065   	0.85731   
O20       	O         	0.24734   	0.32267   	0.18699   
O21       	O         	0.29297   	0.38432   	0.08208   
O22       	O         	0.10462   	0.22754   	0.9586    
O23       	O         	0.21567   	0.28681   	0.01335   
O24       	O         	0.23854   	0.27837   	0.84832   
Si1       	Si        	0.55756   	0.38157   	0.59979   
Si2       	Si        	0.36091   	0.46973   	0.92947   
Si3       	Si        	0.37225   	0.43579   	0.2973    
Si4       	Si        	0.49245   	0.39312   	0.38392   
Si5       	Si        	0.42531   	0.48099   	0.14501   
Si6       	Si        	0.11247   	0.24154   	0.85462   
Si7       	Si        	0.30418   	0.34899   	0.17799   
Si8       	Si        	0.13099   	0.20491   	0.06407   
Si9       	Si        	0.21433   	0.11428   	0.03125   
Si10      	Si        	0.22048   	0.27203   	0.12302   
Si11      	Si        	0.20282   	0.31102   	0.90727   
ZA1       	ZA        	0.5957    	0.37636   	0.38636   
ZA3       	ZA        	0.76953   	0.29316   	0.89554   
ZA5       	ZA        	0.2067    	0.21397   	0.97149   
ZA6       	ZA        	0.43471   	0.08302   	0.5736    
Si12      	Si        	0.5       	0.29735   	0.25      
Si13      	Si        	0.5       	0.57456   	0.25      
ZA7       	ZA        	0.5       	0.43646   	0.25      
ZA2       	ZA        	0.5       	0.5       	0.5       
ZA4       	ZA        	0.0       	0.5       	0.0       
ZA8       	ZA        	0.25      	0.25      	0.5       
loop_
_topos_bond_atom_site_label_1
_topos_bond_atom_site_label_2
_topos_bond_site_symmetry_1
_topos_bond_site_symmetry_2
_topos_bond_distance
_topos_bond_type
O1   	Si6  	1_0_0_0   	1_0_0_0   	1.61   V    
O1   	Si12 	1_0_0_0   	7_0_0_1   	1.611  V    
O2   	Si1  	1_0_0_0   	1_0_0_0   	1.611  V    
O2   	Si8  	1_0_0_0   	8_0_0_0   	1.61   V    
O3   	Si7  	1_0_0_0   	1_0_0_0   	1.61   V    
O3   	Si3  	1_0_0_0   	1_0_0_0   	1.611  V    
O4   	Si9  	1_0_0_0   	1_0_0_0   	1.61   V    
O4   	Si2  	1_0_0_0   	7_0_0_1   	1.611  V    
O5   	Si12 	1_0_0_0   	1_0_0_0   	1.609  V    
O5   	Si4  	1_0_0_0   	1_0_0_0   	1.61   V    
O6   	Si2  	1_0_0_0   	1_0_0_0   	1.61   V    
O6   	Si1  	1_0_0_0   	2_1_0_1   	1.61   V    
O7   	Si3  	1_0_0_0   	1_0_0_0   	1.609  V    
O7   	Si4  	1_0_0_0   	1_0_0_0   	1.609  V    
O8   	Si13 	1_0_0_0   	1_0_0_0   	1.61   V    
O8   	Si1  	1_0_0_0   	4_0_1_-1  	1.609  V    
O9   	Si3  	1_0_0_0   	1_0_0_0   	1.61   V    
O9   	Si2  	1_0_0_0   	4_0_1_-1  	1.61   V    
O10  	Si13 	1_0_0_0   	1_0_0_0   	1.609  V    
O10  	Si5  	1_0_0_0   	1_0_0_0   	1.61   V    
O11  	Si5  	1_0_0_0   	1_0_0_0   	1.61   V    
O11  	Si4  	1_0_0_0   	2_1_0_0   	1.609  V    
O12  	Si3  	1_0_0_0   	1_0_0_0   	1.61   V    
O12  	Si5  	1_0_0_0   	1_0_0_0   	1.61   V    
O13  	Si5  	1_0_0_0   	1_0_0_0   	1.609  V    
O13  	Si2  	1_0_0_0   	1_0_0_-1  	1.609  V    
O14  	Si1  	1_0_0_0   	1_0_0_0   	1.609  V    
O14  	Si4  	1_0_0_0   	1_0_0_0   	1.609  V    
O15  	Si9  	1_0_0_0   	1_0_0_0   	1.61   V    
O15  	Si8  	1_0_0_0   	1_0_0_0   	1.61   V    
O16  	Si7  	1_0_0_0   	1_0_0_0   	1.61   V    
O16  	Si6  	1_0_0_0   	7_0_0_1   	1.61   V    
O17  	Si11 	1_0_0_0   	1_0_0_0   	1.611  V    
O17  	Si9  	1_0_0_0   	7_0_0_1   	1.613  V    
O18  	Si10 	1_0_0_0   	1_0_0_0   	1.61   V    
O18  	Si8  	1_0_0_0   	1_0_0_0   	1.613  V    
O19  	Si11 	1_0_0_0   	1_0_0_0   	1.61   V    
O19  	Si6  	1_0_0_0   	1_0_0_0   	1.613  V    
O20  	Si10 	1_0_0_0   	1_0_0_0   	1.61   V    
O20  	Si7  	1_0_0_0   	1_0_0_0   	1.613  V    
O21  	Si7  	1_0_0_0   	1_0_0_0   	1.611  V    
O21  	Si9  	1_0_0_0   	7_0_0_0   	1.61   V    
O22  	Si6  	1_0_0_0   	1_0_0_0   	1.61   V    
O22  	Si8  	1_0_0_0   	1_0_0_1   	1.61   V    
O23  	Si10 	1_0_0_0   	1_0_0_0   	1.609  V    
O23  	Si11 	1_0_0_0   	1_0_0_-1  	1.609  V    
O24  	Si11 	1_0_0_0   	1_0_0_0   	1.612  V    
O24  	Si10 	1_0_0_0   	7_0_0_1   	1.612  V    
Si1  	O6   	1_0_0_0   	2_1_0_1   	1.61   V    
Si1  	O8   	1_0_0_0   	4_0_1_0   	1.609  V    
Si2  	O4   	1_0_0_0   	7_0_0_1   	1.611  V    
Si2  	O9   	1_0_0_0   	4_0_1_0   	1.61   V    
Si2  	O13  	1_0_0_0   	1_0_0_1   	1.609  V    
Si4  	O11  	1_0_0_0   	2_1_0_0   	1.609  V    
Si6  	O16  	1_0_0_0   	7_0_0_1   	1.61   V    
Si8  	O2   	1_0_0_0   	8_-1_0_-1 	1.61   V    
Si8  	O22  	1_0_0_0   	1_0_0_-1  	1.61   V    
Si9  	O17  	1_0_0_0   	7_0_0_1   	1.613  V    
Si9  	O21  	1_0_0_0   	7_0_0_0   	1.61   V    
Si10 	O24  	1_0_0_0   	7_0_0_1   	1.612  V    
Si11 	O23  	1_0_0_0   	1_0_0_1   	1.609  V    
ZA3  	ZA6  	1_0_0_0   	8_0_0_0   	5.304  V    
ZA3  	ZA8  	1_0_0_0   	2_1_0_1   	2.019  V    
ZA5  	ZA5  	1_0_0_0   	7_0_0_2   	2.787  V    
ZA6  	ZA3  	1_0_0_0   	8_-1_0_-1 	5.304  V    
ZA6  	ZA4  	1_0_0_0   	6_0_-1_0  	3.003  V    
ZA6  	ZA6  	1_0_0_0   	2_1_0_1   	5.348  V    
Si12 	O5   	1_0_0_0   	2_1_0_0   	1.609  V    
Si12 	O1   	1_0_0_0   	7_0_0_1   	1.611  V    
Si12 	O1   	1_0_0_0   	8_0_0_-1  	1.611  V    
Si13 	O8   	1_0_0_0   	2_1_0_0   	1.61   V    
Si13 	O10  	1_0_0_0   	2_1_0_0   	1.609  V    
ZA4  	ZA6  	1_0_0_0   	8_-1_0_-1 	3.003  V    
ZA4  	ZA6  	1_0_0_0   	6_0_0_0   	3.003  V    
ZA8  	ZA3  	1_0_0_0   	2_1_0_1   	2.019  V    
ZA8  	ZA3  	1_0_0_0   	8_-1_0_-1 	2.019  V    
