data_IFT-PPT1
_audit_creation_method             	Write2Cif_ToposPro  
_symmetry_space_group_name_H-M     	CMCM                
_symmetry_Int_Tables_number        	63                  
_symmetry_cell_setting             	orthorhombic system 
_cell_length_a                     	18.889              
_cell_length_b                     	22.8023             
_cell_length_c                     	29.0815             
_cell_angle_alpha                  	90.0                
_cell_angle_beta                   	90.0                
_cell_angle_gamma                  	90.0                
loop_
_symmetry_equiv_pos_as_xyz
x,y,z
-x,-y,z+1/2
-x,y,-z+1/2
x,-y,-z
-x,-y,-z
x,y,-z+1/2
x,-y,z+1/2
-x,y,z
x+1/2,y+1/2,z
-x+1/2,-y+1/2,z+1/2
-x+1/2,y+1/2,-z+1/2
x+1/2,-y+1/2,-z
-x+1/2,-y+1/2,-z
x+1/2,y+1/2,-z+1/2
x+1/2,-y+1/2,z+1/2
-x+1/2,y+1/2,z
loop_
_atom_site_label
_atom_site_type_symbol
_atom_site_fract_x
_atom_site_fract_y
_atom_site_fract_z
O1        	O         	0.06963   	0.29696   	0.91809   
O2        	O         	0.16616   	0.21799   	0.93911   
O3        	O         	0.19975   	0.32946   	0.93594   
O4        	O         	0.12136   	0.28863   	0.00342   
O5        	O         	0.43122   	0.24379   	0.91596   
O6        	O         	0.30172   	0.20353   	0.92      
O7        	O         	0.33386   	0.30657   	0.95444   
O8        	O         	0.20712   	0.11876   	0.90155   
O9        	O         	0.24581   	0.14164   	0.98464   
O10       	O         	0.20571   	0.08369   	0.05674   
O11       	O         	0.12656   	0.07556   	0.83822   
O12       	O         	0.07002   	0.10167   	0.91844   
O13       	O         	0.15271   	0.01137   	0.91082   
O14       	O         	0.06945   	0.06451   	0.04572   
O15       	O         	0.06903   	0.17651   	0.80887   
Si1       	Si        	0.13825   	0.28347   	0.94925   
Si2       	Si        	0.36118   	0.24031   	0.94734   
Si3       	Si        	0.22974   	0.17127   	0.93549   
Si4       	Si        	0.22978   	0.14738   	0.0388    
Si5       	Si        	0.1395    	0.07722   	0.89291   
Si6       	Si        	0.14642   	0.03435   	0.04716   
Si7       	Si        	0.07795   	0.1071    	0.80023   
O16       	O         	0.0       	0.07829   	0.80115   
O17       	O         	0.0       	0.2666    	0.84134   
O18       	O         	0.0       	0.19981   	0.91492   
O19       	O         	0.0       	0.15461   	0.08027   
O20       	O         	0.0       	0.13707   	0.99149   
O21       	O         	0.0       	0.21719   	0.15595   
Si8       	Si        	0.0       	0.26649   	0.89677   
Si9       	Si        	0.0       	0.22024   	0.10062   
Si10      	Si        	0.0       	0.13474   	0.93619   
Si11      	Si        	0.0       	0.10502   	0.04084   
Si12      	Si        	0.0       	0.21726   	0.80171   
ZA1       	ZA        	0.0       	0.14102   	0.86014   
ZA4       	ZA        	0.0       	0.31134   	0.0079    
ZA6       	ZA        	0.0       	0.03213   	0.96911   
O22       	O         	0.16255   	0.0       	0.0       
O23       	O         	0.11183   	0.09706   	0.75      
O24       	O         	0.0       	0.24271   	0.75      
ZA2       	ZA        	0.0       	0.14382   	0.75      
ZA3       	ZA        	0.25      	0.25      	0.0       
ZA5       	ZA        	0.5       	0.19993   	0.75      
loop_
_topos_bond_atom_site_label_1
_topos_bond_atom_site_label_2
_topos_bond_site_symmetry_1
_topos_bond_site_symmetry_2
_topos_bond_distance
_topos_bond_type
O1   	Si1  	1_0_0_0   	1_0_0_0   	1.611  V    
O1   	Si8  	1_0_0_0   	1_0_0_0   	1.612  V    
O2   	Si3  	1_0_0_0   	1_0_0_0   	1.609  V    
O2   	Si1  	1_0_0_0   	1_0_0_0   	1.611  V    
O3   	Si1  	1_0_0_0   	1_0_0_0   	1.612  V    
O3   	Si4  	1_0_0_0   	13_0_0_1  	1.609  V    
O4   	Si2  	1_0_0_0   	13_0_0_1  	1.611  V    
O4   	Si1  	1_0_0_0   	1_0_0_-1  	1.612  V    
O5   	Si2  	1_0_0_0   	1_0_0_0   	1.609  V    
O5   	Si9  	1_0_0_0   	12_0_0_1  	1.61   V    
O6   	Si3  	1_0_0_0   	1_0_0_0   	1.61   V    
O6   	Si2  	1_0_0_0   	1_0_0_0   	1.612  V    
O7   	Si2  	1_0_0_0   	1_0_0_0   	1.61   V    
O7   	Si4  	1_0_0_0   	13_0_0_1  	1.608  V    
O8   	Si3  	1_0_0_0   	1_0_0_0   	1.609  V    
O8   	Si5  	1_0_0_0   	1_0_0_0   	1.61   V    
O9   	Si3  	1_0_0_0   	1_0_0_0   	1.61   V    
O9   	Si4  	1_0_0_0   	1_0_0_1   	1.609  V    
O10  	Si4  	1_0_0_0   	1_0_0_0   	1.609  V    
O10  	Si6  	1_0_0_0   	1_0_0_0   	1.612  V    
O11  	Si7  	1_0_0_0   	1_0_0_0   	1.607  V    
O11  	Si5  	1_0_0_0   	1_0_0_0   	1.61   V    
O12  	Si10 	1_0_0_0   	1_0_0_0   	1.608  V    
O12  	Si5  	1_0_0_0   	1_0_0_0   	1.608  V    
O13  	Si5  	1_0_0_0   	1_0_0_0   	1.609  V    
O13  	Si6  	1_0_0_0   	4_0_0_1   	1.611  V    
O14  	Si6  	1_0_0_0   	1_0_0_0   	1.609  V    
O14  	Si11 	1_0_0_0   	1_0_0_0   	1.611  V    
O15  	Si7  	1_0_0_0   	1_0_0_0   	1.611  V    
O15  	Si12 	1_0_0_0   	1_0_0_0   	1.615  V    
Si1  	O4   	1_0_0_0   	1_0_0_1   	1.612  V    
Si2  	O4   	1_0_0_0   	13_0_0_1  	1.611  V    
Si4  	O3   	1_0_0_0   	13_0_0_1  	1.609  V    
Si4  	O7   	1_0_0_0   	13_0_0_1  	1.608  V    
Si4  	O9   	1_0_0_0   	1_0_0_-1  	1.609  V    
Si6  	O22  	1_0_0_0   	1_0_0_0   	1.609  V    
Si6  	O13  	1_0_0_0   	4_0_0_1   	1.611  V    
Si7  	O23  	1_0_0_0   	1_0_0_0   	1.611  V    
Si7  	O16  	1_0_0_0   	1_0_0_0   	1.613  V    
O16  	Si7  	1_0_0_0   	8_0_0_0   	1.613  V    
O17  	Si12 	1_0_0_0   	1_0_0_0   	1.611  V    
O17  	Si8  	1_0_0_0   	1_0_0_0   	1.612  V    
O18  	Si10 	1_0_0_0   	1_0_0_0   	1.608  V    
O18  	Si8  	1_0_0_0   	1_0_0_0   	1.609  V    
O19  	Si9  	1_0_0_0   	1_0_0_0   	1.609  V    
O19  	Si11 	1_0_0_0   	1_0_0_0   	1.61   V    
O20  	Si10 	1_0_0_0   	1_0_0_0   	1.609  V    
O20  	Si11 	1_0_0_0   	1_0_0_1   	1.611  V    
O21  	Si9  	1_0_0_0   	1_0_0_0   	1.611  V    
Si8  	O1   	1_0_0_0   	8_0_0_0   	1.612  V    
Si9  	O5   	1_0_0_0   	12_-1_0_1 	1.61   V    
Si9  	O5   	1_0_0_0   	13_0_0_1  	1.61   V    
Si10 	O12  	1_0_0_0   	8_0_0_0   	1.608  V    
Si11 	O14  	1_0_0_0   	8_0_0_0   	1.611  V    
Si11 	O20  	1_0_0_0   	1_0_0_-1  	1.611  V    
Si12 	O15  	1_0_0_0   	8_0_0_0   	1.615  V    
Si12 	O24  	1_0_0_0   	1_0_0_0   	1.612  V    
ZA4  	ZA5  	1_0_0_0   	10_0_0_-1 	7.045  V    
ZA4  	ZA4  	1_0_0_0   	4_0_1_0   	8.616  V    
ZA6  	ZA6  	1_0_0_0   	4_0_0_2   	2.318  V    
O22  	Si6  	1_0_0_0   	4_0_0_0   	1.609  V    
O23  	Si7  	1_0_0_0   	6_0_0_1   	1.611  V    
O24  	Si12 	1_0_0_0   	3_0_0_1   	1.612  V    
ZA5  	ZA4  	1_0_0_0   	10_0_0_0  	7.045  V    
ZA5  	ZA4  	1_0_0_0   	12_0_0_1  	7.045  V    
ZA5  	ZA5  	1_0_0_0   	9_-1_0_0  	14.805 V    
ZA5  	ZA5  	1_0_0_0   	9_0_0_0   	14.805 V    
ZA5  	ZA5  	1_0_0_0   	9_0_-1_0  	14.805 V    
ZA5  	ZA5  	1_0_0_0   	9_-1_-1_0 	14.805 V    
