data_IMF-PPT1
_audit_creation_method             	Write2Cif_ToposPro  
_symmetry_space_group_name_H-M     	CMCM                
_symmetry_Int_Tables_number        	63                  
_symmetry_cell_setting             	orthorhombic system 
_cell_length_a                     	14.296              
_cell_length_b                     	56.788              
_cell_length_c                     	20.29               
_cell_angle_alpha                  	90.0                
_cell_angle_beta                   	90.0                
_cell_angle_gamma                  	90.0                
loop_
_symmetry_equiv_pos_as_xyz
x,y,z
-x,-y,z+1/2
-x,y,-z+1/2
x,-y,-z
-x,-y,-z
x,y,-z+1/2
x,-y,z+1/2
-x,y,z
x+1/2,y+1/2,z
-x+1/2,-y+1/2,z+1/2
-x+1/2,y+1/2,-z+1/2
x+1/2,-y+1/2,-z
-x+1/2,-y+1/2,-z
x+1/2,y+1/2,-z+1/2
x+1/2,-y+1/2,z+1/2
-x+1/2,y+1/2,z
loop_
_atom_site_label
_atom_site_type_symbol
_atom_site_fract_x
_atom_site_fract_y
_atom_site_fract_z
O1        	O         	0.5922    	0.4345    	0.5556    
O2        	O         	0.4081    	0.3656    	0.6601    
O3        	O         	0.5921    	0.3068    	0.6587    
O4        	O         	0.5915    	0.2378    	0.9451    
O5        	O         	0.4081    	0.1106    	0.6636    
O6        	O         	0.5915    	0.0331    	0.6619    
O7        	O         	0.2271    	0.0346    	0.0483    
O8        	O         	0.1969    	0.0637    	0.9494    
O9        	O         	0.2682    	0.0798    	0.0597    
O10       	O         	0.2329    	0.1635    	0.148     
O11       	O         	0.2587    	0.1179    	0.132     
O12       	O         	0.2666    	0.2084    	0.1611    
O13       	O         	0.1938    	0.1923    	0.0509    
O14       	O         	0.2354    	0.2912    	0.0588    
O15       	O         	0.2367    	0.2525    	0.1291    
O16       	O         	0.2571    	0.3735    	0.1258    
O17       	O         	0.2344    	0.4181    	0.1595    
O18       	O         	0.2733    	0.4635    	0.1535    
O19       	O         	0.1929    	0.504     	0.1286    
O20       	O         	0.4084    	0.0346    	0.0634    
O21       	O         	0.4074    	0.1106    	0.0595    
O22       	O         	0.2471    	0.1209    	0.0028    
O23       	O         	0.408     	0.2383    	0.1562    
O24       	O         	0.4079    	0.3075    	0.0567    
O25       	O         	0.2644    	0.3365    	0.0469    
O26       	O         	0.4076    	0.3646    	0.0542    
O27       	O         	0.4083    	0.4327    	0.1566    
Si1       	Si        	0.1964    	0.061     	0.0283    
Si2       	Si        	0.1958    	0.1894    	0.1297    
Si3       	Si        	0.2036    	0.264     	0.0605    
Si4       	Si        	0.317     	0.0181    	0.0603    
Si5       	Si        	0.3038    	0.3108    	0.0279    
Si6       	Si        	0.2951    	0.3636    	0.0565    
Si7       	Si        	0.3042    	0.4376    	0.1297    
Si8       	Si        	0.2032    	0.3913    	0.1744    
Si9       	Si        	0.1884    	0.4807    	0.1736    
Si10      	Si        	0.2956    	0.1072    	0.0633    
Si11      	Si        	0.2989    	0.2351    	0.1738    
Si12      	Si        	0.2023    	0.1376    	0.1728    
ZA5       	ZA        	0.65541   	0.06531   	0.55395   
ZA6       	ZA        	0.14869   	0.09491   	0.94465   
ZA10      	ZA        	0.14886   	0.22211   	0.05598   
O28       	O         	0.5       	0.4       	0.4984    
O29       	O         	0.5       	0.4041    	0.6277    
O30       	O         	0.5       	0.2682    	0.6283    
O31       	O         	0.5       	0.2727    	0.0007    
O32       	O         	0.5       	0.0719    	0.6317    
O33       	O         	0.5       	0.1086    	0.5524    
O34       	O         	0.5       	0.0358    	0.55      
O35       	O         	0.5       	0.0725    	0.0286    
O36       	O         	0.5       	0.2772    	0.1297    
O37       	O         	0.5       	0.3936    	0.13      
Si13      	Si        	0.5       	0.4183    	0.559     
Si14      	Si        	0.5       	0.2542    	0.9407    
Si15      	Si        	0.5       	0.2912    	0.4392    
Si16      	Si        	0.5       	0.3807    	0.0595    
Si17      	Si        	0.5       	0.4174    	0.1733    
Si18      	Si        	0.5       	0.2914    	0.6737    
Si19      	Si        	0.5       	0.3812    	0.6742    
Si20      	Si        	0.5       	0.1002    	0.6282    
Si21      	Si        	0.5       	0.0436    	0.6262    
Si22      	Si        	0.5       	0.0442    	0.0258    
Si23      	Si        	0.5       	0.1007    	0.0238    
Si24      	Si        	0.5       	0.2535    	0.1731    
ZA11      	ZA        	0.5       	0.20505   	0.05294   
ZA13      	ZA        	0.5       	0.00913   	0.9474    
O38       	O         	0.5       	0.3895    	0.75      
O39       	O         	0.5       	0.2837    	0.75      
O40       	O         	0.2252    	0.1348    	0.25      
O41       	O         	0.2273    	0.3851    	0.25      
O42       	O         	0.1978    	0.4879    	0.25      
O43       	O         	0.2823    	0.2418    	0.25      
ZA1       	ZA        	0.32923   	0.30136   	0.25      
ZA3       	ZA        	0.18899   	0.07216   	0.25      
ZA17      	ZA        	0.17425   	0.19268   	0.25      
ZA18      	ZA        	0.29895   	0.43175   	0.25      
O44       	O         	0.25      	0.25      	0.0       
O45       	O         	0.3284    	0.0       	0.0       
O46       	O         	0.5       	0.2604    	0.25      
O47       	O         	0.5       	0.4103    	0.25      
ZA2       	ZA        	0.5       	0.16928   	0.25      
ZA7       	ZA        	0.5       	0.05465   	0.25      
ZA14      	ZA        	0.5       	0.36245   	0.25      
ZA19      	ZA        	0.5       	0.51025   	0.25      
ZA4       	ZA        	0.0       	0.16357   	0.25      
ZA12      	ZA        	0.0       	0.29084   	0.25      
ZA16      	ZA        	0.0       	0.43442   	0.25      
ZA8       	ZA        	0.0       	0.14581   	0.05363   
ZA9       	ZA        	0.0       	0.02283   	0.94754   
ZA15      	ZA        	0.0       	0.34538   	0.05198   
loop_
_topos_bond_atom_site_label_1
_topos_bond_atom_site_label_2
_topos_bond_site_symmetry_1
_topos_bond_site_symmetry_2
_topos_bond_distance
_topos_bond_type
O1   	Si13 	1_0_0_0   	1_0_0_0   	1.609  V    
O1   	Si1  	1_0_0_0   	15_0_0_0  	1.61   V    
O2   	Si19 	1_0_0_0   	1_0_0_0   	1.61   V    
O2   	Si12 	1_0_0_0   	10_0_0_0  	1.609  V    
O3   	Si18 	1_0_0_0   	1_0_0_0   	1.61   V    
O3   	Si2  	1_0_0_0   	15_0_0_0  	1.61   V    
O4   	Si14 	1_0_0_0   	1_0_0_0   	1.608  V    
O4   	Si3  	1_0_0_0   	12_0_0_1  	1.61   V    
O5   	Si20 	1_0_0_0   	1_0_0_0   	1.61   V    
O5   	Si8  	1_0_0_0   	10_0_0_0  	1.61   V    
O6   	Si21 	1_0_0_0   	1_0_0_0   	1.61   V    
O6   	Si9  	1_0_0_0   	15_0_0_0  	1.609  V    
O7   	Si4  	1_0_0_0   	1_0_0_0   	1.609  V    
O7   	Si1  	1_0_0_0   	1_0_0_0   	1.614  V    
O8   	Si7  	1_0_0_0   	13_0_0_1  	1.607  V    
O8   	Si1  	1_0_0_0   	1_0_0_1   	1.608  V    
O9   	Si10 	1_0_0_0   	1_0_0_0   	1.606  V    
O9   	Si1  	1_0_0_0   	1_0_0_0   	1.612  V    
O10  	Si2  	1_0_0_0   	1_0_0_0   	1.607  V    
O10  	Si12 	1_0_0_0   	1_0_0_0   	1.615  V    
O11  	Si12 	1_0_0_0   	1_0_0_0   	1.608  V    
O11  	Si10 	1_0_0_0   	1_0_0_0   	1.61   V    
O12  	Si11 	1_0_0_0   	1_0_0_0   	1.606  V    
O12  	Si2  	1_0_0_0   	1_0_0_0   	1.611  V    
O13  	Si2  	1_0_0_0   	1_0_0_0   	1.608  V    
O13  	Si5  	1_0_0_0   	13_0_0_0  	1.609  V    
O14  	Si5  	1_0_0_0   	1_0_0_0   	1.609  V    
O14  	Si3  	1_0_0_0   	1_0_0_0   	1.611  V    
O15  	Si3  	1_0_0_0   	1_0_0_0   	1.609  V    
O15  	Si11 	1_0_0_0   	1_0_0_0   	1.609  V    
O16  	Si8  	1_0_0_0   	1_0_0_0   	1.609  V    
O16  	Si6  	1_0_0_0   	1_0_0_0   	1.609  V    
O17  	Si7  	1_0_0_0   	1_0_0_0   	1.609  V    
O17  	Si8  	1_0_0_0   	1_0_0_0   	1.614  V    
O18  	Si7  	1_0_0_0   	1_0_0_0   	1.61   V    
O18  	Si9  	1_0_0_0   	1_0_0_0   	1.61   V    
O19  	Si9  	1_0_0_0   	1_0_0_0   	1.609  V    
O19  	Si4  	1_0_0_0   	16_0_0_0  	1.607  V    
O20  	Si4  	1_0_0_0   	1_0_0_0   	1.609  V    
O20  	Si22 	1_0_0_0   	1_0_0_0   	1.611  V    
O21  	Si23 	1_0_0_0   	1_0_0_0   	1.61   V    
O21  	Si10 	1_0_0_0   	1_0_0_0   	1.612  V    
O22  	Si10 	1_0_0_0   	1_0_0_0   	1.61   V    
O22  	Si6  	1_0_0_0   	13_0_0_0  	1.608  V    
O23  	Si24 	1_0_0_0   	1_0_0_0   	1.61   V    
O23  	Si11 	1_0_0_0   	1_0_0_0   	1.61   V    
O24  	Si5  	1_0_0_0   	1_0_0_0   	1.61   V    
O24  	Si15 	1_0_0_0   	3_1_0_0   	1.612  V    
O25  	Si5  	1_0_0_0   	1_0_0_0   	1.611  V    
O25  	Si6  	1_0_0_0   	1_0_0_0   	1.612  V    
O26  	Si6  	1_0_0_0   	1_0_0_0   	1.61   V    
O26  	Si16 	1_0_0_0   	1_0_0_0   	1.61   V    
O27  	Si17 	1_0_0_0   	1_0_0_0   	1.609  V    
O27  	Si7  	1_0_0_0   	1_0_0_0   	1.609  V    
Si1  	O1   	1_0_0_0   	15_-1_0_-1	1.61   V    
Si1  	O8   	1_0_0_0   	1_0_0_-1  	1.608  V    
Si2  	O3   	1_0_0_0   	15_-1_0_-1	1.61   V    
Si3  	O4   	1_0_0_0   	12_-1_0_1 	1.61   V    
Si3  	O44  	1_0_0_0   	1_0_0_0   	1.606  V    
Si4  	O19  	1_0_0_0   	16_0_-1_0 	1.607  V    
Si4  	O45  	1_0_0_0   	1_0_0_0   	1.606  V    
Si5  	O13  	1_0_0_0   	13_0_0_0  	1.609  V    
Si6  	O22  	1_0_0_0   	13_0_0_0  	1.608  V    
Si7  	O8   	1_0_0_0   	13_0_0_1  	1.607  V    
Si8  	O41  	1_0_0_0   	1_0_0_0   	1.611  V    
Si8  	O5   	1_0_0_0   	10_0_0_-1 	1.61   V    
Si9  	O6   	1_0_0_0   	15_-1_0_-1	1.609  V    
Si9  	O42  	1_0_0_0   	1_0_0_0   	1.609  V    
Si11 	O43  	1_0_0_0   	1_0_0_0   	1.61   V    
Si12 	O2   	1_0_0_0   	10_0_0_-1 	1.609  V    
Si12 	O40  	1_0_0_0   	1_0_0_0   	1.608  V    
O28  	Si13 	1_0_0_0   	1_0_0_0   	1.61   V    
O28  	Si16 	1_0_0_0   	3_1_0_0   	1.607  V    
O29  	Si19 	1_0_0_0   	1_0_0_0   	1.607  V    
O29  	Si13 	1_0_0_0   	1_0_0_0   	1.61   V    
O30  	Si18 	1_0_0_0   	1_0_0_0   	1.608  V    
O30  	Si14 	1_0_0_0   	3_1_0_1   	1.61   V    
O31  	Si14 	1_0_0_0   	1_0_0_-1  	1.608  V    
O31  	Si15 	1_0_0_0   	3_1_0_0   	1.61   V    
O32  	Si20 	1_0_0_0   	1_0_0_0   	1.609  V    
O32  	Si21 	1_0_0_0   	1_0_0_0   	1.611  V    
O33  	Si20 	1_0_0_0   	1_0_0_0   	1.61   V    
O33  	Si23 	1_0_0_0   	3_1_0_0   	1.61   V    
O34  	Si21 	1_0_0_0   	1_0_0_0   	1.608  V    
O34  	Si22 	1_0_0_0   	3_1_0_0   	1.61   V    
O35  	Si23 	1_0_0_0   	1_0_0_0   	1.604  V    
O35  	Si22 	1_0_0_0   	1_0_0_0   	1.608  V    
O36  	Si24 	1_0_0_0   	1_0_0_0   	1.608  V    
O36  	Si15 	1_0_0_0   	3_1_0_0   	1.608  V    
O37  	Si16 	1_0_0_0   	1_0_0_0   	1.607  V    
O37  	Si17 	1_0_0_0   	1_0_0_0   	1.612  V    
Si13 	O1   	1_0_0_0   	8_1_0_0   	1.609  V    
Si14 	O4   	1_0_0_0   	8_1_0_0   	1.608  V    
Si14 	O30  	1_0_0_0   	3_1_0_1   	1.61   V    
Si14 	O31  	1_0_0_0   	1_0_0_1   	1.608  V    
Si15 	O24  	1_0_0_0   	3_1_0_0   	1.612  V    
Si15 	O24  	1_0_0_0   	6_0_0_0   	1.612  V    
Si15 	O31  	1_0_0_0   	3_1_0_0   	1.61   V    
Si15 	O36  	1_0_0_0   	3_1_0_0   	1.608  V    
Si16 	O26  	1_0_0_0   	8_1_0_0   	1.61   V    
Si16 	O28  	1_0_0_0   	3_1_0_0   	1.607  V    
Si17 	O27  	1_0_0_0   	8_1_0_0   	1.609  V    
Si17 	O47  	1_0_0_0   	1_0_0_0   	1.608  V    
Si18 	O3   	1_0_0_0   	8_1_0_0   	1.61   V    
Si18 	O39  	1_0_0_0   	1_0_0_0   	1.609  V    
Si19 	O2   	1_0_0_0   	8_1_0_0   	1.61   V    
Si19 	O38  	1_0_0_0   	1_0_0_0   	1.609  V    
Si20 	O5   	1_0_0_0   	8_1_0_0   	1.61   V    
Si21 	O6   	1_0_0_0   	8_1_0_0   	1.61   V    
Si22 	O20  	1_0_0_0   	8_1_0_0   	1.611  V    
Si22 	O34  	1_0_0_0   	3_1_0_0   	1.61   V    
Si23 	O21  	1_0_0_0   	8_1_0_0   	1.61   V    
Si23 	O33  	1_0_0_0   	3_1_0_0   	1.61   V    
Si24 	O23  	1_0_0_0   	8_1_0_0   	1.61   V    
Si24 	O46  	1_0_0_0   	1_0_0_0   	1.609  V    
ZA11 	ZA2  	1_0_0_0   	1_0_0_0   	4.485  V    
ZA11 	ZA15 	1_0_0_0   	12_0_0_0  	3.568  V    
ZA13 	ZA13 	1_0_0_0   	4_0_0_2   	2.373  V    
O38  	Si19 	1_0_0_0   	3_1_0_1   	1.609  V    
O39  	Si18 	1_0_0_0   	3_1_0_1   	1.609  V    
O40  	Si12 	1_0_0_0   	6_0_0_0   	1.608  V    
O41  	Si8  	1_0_0_0   	6_0_0_0   	1.611  V    
O42  	Si9  	1_0_0_0   	6_0_0_0   	1.609  V    
O43  	Si11 	1_0_0_0   	6_0_0_0   	1.61   V    
ZA1  	ZA14 	1_0_0_0   	1_0_0_0   	4.242  V    
ZA1  	ZA12 	1_0_0_0   	1_0_0_0   	4.744  V    
ZA3  	ZA7  	1_0_0_0   	1_0_0_0   	4.556  V    
ZA3  	ZA19 	1_0_0_0   	9_-1_-1_0 	4.434  V    
ZA17 	ZA4  	1_0_0_0   	1_0_0_0   	2.99   V    
O44  	Si3  	1_0_0_0   	13_0_0_0  	1.606  V    
O45  	Si4  	1_0_0_0   	4_0_0_0   	1.606  V    
O46  	Si24 	1_0_0_0   	3_1_0_0   	1.609  V    
O47  	Si17 	1_0_0_0   	3_1_0_0   	1.608  V    
ZA2  	ZA7  	1_0_0_0   	1_0_0_0   	6.51   V    
ZA2  	ZA11 	1_0_0_0   	3_1_0_0   	4.485  V    
ZA7  	ZA3  	1_0_0_0   	3_1_0_0   	4.556  V    
ZA14 	ZA1  	1_0_0_0   	3_1_0_0   	4.242  V    
ZA19 	ZA3  	1_0_0_0   	9_0_0_0   	4.434  V    
ZA19 	ZA3  	1_0_0_0   	11_0_0_0  	4.434  V    
ZA19 	ZA9  	1_0_0_0   	10_0_0_-1 	4.426  V    
ZA19 	ZA9  	1_0_0_0   	12_0_0_1  	4.426  V    
ZA4  	ZA17 	1_0_0_0   	3_0_0_0   	2.99   V    
ZA12 	ZA1  	1_0_0_0   	3_0_0_0   	4.744  V    
ZA12 	ZA15 	1_0_0_0   	1_0_0_0   	5.073  V    
ZA12 	ZA15 	1_0_0_0   	3_0_0_0   	5.073  V    
ZA9  	ZA9  	1_0_0_0   	4_0_0_2   	3.355  V    
ZA9  	ZA19 	1_0_0_0   	10_0_0_0  	4.426  V    
ZA15 	ZA11 	1_0_0_0   	12_-1_0_0 	3.568  V    
