data_ION-PPT1
_audit_creation_method             	Write2Cif_ToposPro  
_symmetry_space_group_name_H-M     	PNMA                
_symmetry_Int_Tables_number        	62                  
_symmetry_cell_setting             	orthorhombic system 
_cell_length_a                     	20.0314             
_cell_length_b                     	34.878              
_cell_length_c                     	13.2653             
_cell_angle_alpha                  	90.0                
_cell_angle_beta                   	90.0                
_cell_angle_gamma                  	90.0                
loop_
_symmetry_equiv_pos_as_xyz
x,y,z
-x+1/2,-y,z+1/2
-x,y+1/2,-z
x+1/2,-y+1/2,-z+1/2
-x,-y,-z
x+1/2,y,-z+1/2
x,-y+1/2,z
-x+1/2,y+1/2,z+1/2
loop_
_atom_site_label
_atom_site_type_symbol
_atom_site_fract_x
_atom_site_fract_y
_atom_site_fract_z
O1        	O         	0.40262   	0.57626   	0.56456   
O2        	O         	0.49556   	0.69972   	0.73742   
O3        	O         	0.37079   	0.68181   	0.77811   
O4        	O         	0.41075   	0.46931   	0.31764   
O5        	O         	0.6079    	0.59381   	0.78722   
O6        	O         	0.1201    	0.69445   	0.70087   
O7        	O         	0.24012   	0.68962   	0.77928   
O8        	O         	0.59011   	0.67955   	0.6098    
O9        	O         	0.22514   	0.71213   	0.59155   
O10       	O         	0.49701   	0.47776   	0.70548   
O11       	O         	0.2856    	0.71227   	0.13831   
O12       	O         	0.30282   	0.57421   	0.11065   
O13       	O         	0.36751   	0.46864   	0.72711   
O14       	O         	0.61081   	0.47196   	0.80207   
O15       	O         	0.68729   	0.57125   	0.93346   
O16       	O         	0.41678   	0.40226   	0.40701   
O17       	O         	0.73917   	0.48435   	0.77998   
O18       	O         	0.26645   	0.42078   	0.25109   
O19       	O         	0.58453   	0.49847   	0.43664   
O20       	O         	0.29277   	0.46007   	0.88838   
O21       	O         	0.1877    	0.58486   	0.02163   
O22       	O         	0.56716   	0.57203   	0.40733   
O23       	O         	0.70132   	0.4061    	0.08074   
O24       	O         	0.70164   	0.63997   	0.8571    
O25       	O         	0.32023   	0.52928   	0.82169   
O26       	O         	0.55796   	0.71231   	0.43813   
O27       	O         	0.60747   	0.46192   	0.60583   
O28       	O         	0.60788   	0.64275   	0.43954   
O29       	O         	0.26549   	0.64388   	0.05999   
O30       	O         	0.20226   	0.46739   	0.03134   
O31       	O         	0.51203   	0.42277   	0.28389   
O32       	O         	0.31709   	0.50349   	0.04522   
O33       	O         	0.30808   	0.70045   	0.94594   
O34       	O         	0.40206   	0.78777   	0.60253   
O35       	O         	0.63825   	0.4052    	0.2534    
O36       	O         	0.81509   	0.29893   	0.98472   
O37       	O         	0.43875   	0.85829   	0.64543   
Si1       	Si        	0.68253   	0.46942   	0.85646   
Si2       	Si        	0.28092   	0.46477   	0.0078    
Si3       	Si        	0.30515   	0.48567   	0.78906   
Si4       	Si        	0.6113    	0.59917   	0.47939   
Si5       	Si        	0.62324   	0.46283   	0.48683   
Si6       	Si        	0.57713   	0.40272   	0.33182   
Si7       	Si        	0.73612   	0.40058   	0.97235   
Si8       	Si        	0.42657   	0.68395   	0.6909    
Si9       	Si        	0.19696   	0.68409   	0.67792   
Si10      	Si        	0.42808   	0.46909   	0.64747   
Si11      	Si        	0.57247   	0.7058    	0.70605   
Si12      	Si        	0.61028   	0.68422   	0.4929    
Si13      	Si        	0.57607   	0.48559   	0.69862   
Si14      	Si        	0.56708   	0.57477   	0.69538   
Si15      	Si        	0.73907   	0.31069   	0.96019   
Si16      	Si        	0.3092    	0.79457   	0.82531   
Si17      	Si        	0.30331   	0.57418   	0.80977   
Si18      	Si        	0.18267   	0.59618   	0.66845   
ZA1       	ZA        	0.68781   	0.64126   	0.63248   
ZA3       	ZA        	0.80256   	0.53303   	0.84407   
ZA4       	ZA        	0.80718   	0.46978   	0.09472   
ZA5       	ZA        	0.47604   	0.52994   	0.90911   
ZA7       	ZA        	0.51125   	0.53014   	0.53811   
ZA12      	ZA        	0.57377   	0.64068   	0.6733    
ZA13      	ZA        	0.7042    	0.35877   	0.199     
O38       	O         	0.58477   	0.75      	0.6766    
O39       	O         	0.31665   	0.75      	0.49101   
O40       	O         	0.31753   	0.75      	0.79665   
O41       	O         	0.44401   	0.75      	0.4427    
O42       	O         	0.51723   	0.75      	0.27854   
O43       	O         	0.19233   	0.75      	0.4277    
O44       	O         	0.19982   	0.75      	0.25078   
O45       	O         	0.3273    	0.75      	0.29787   
Si20      	Si        	0.39166   	0.75      	0.53474   
Si21      	Si        	0.5192    	0.75      	0.3999    
Si22      	Si        	0.23962   	0.75      	0.52584   
ZA2       	ZA        	0.69297   	0.75      	0.36629   
ZA8       	ZA        	0.31209   	0.75      	0.68111   
ZA9       	ZA        	0.49565   	0.75      	0.00774   
ZA10      	ZA        	0.51619   	0.75      	0.58929   
ZA11      	ZA        	0.44579   	0.75      	0.42084   
Si19      	Si        	0.22541   	0.25      	0.70624   
ZA6       	ZA        	0.6999    	0.25      	0.53129   
loop_
_topos_bond_atom_site_label_1
_topos_bond_atom_site_label_2
_topos_bond_site_symmetry_1
_topos_bond_site_symmetry_2
_topos_bond_distance
_topos_bond_type
O1   	Si6  	1_0_0_0   	5_1_1_1   	1.61   V    
O1   	Si5  	1_0_0_0   	5_1_1_1   	1.61   V    
O2   	Si11 	1_0_0_0   	1_0_0_0   	1.61   V    
O2   	Si8  	1_0_0_0   	1_0_0_0   	1.61   V    
O3   	Si8  	1_0_0_0   	1_0_0_0   	1.61   V    
O3   	Si16 	1_0_0_0   	7_0_1_0   	1.61   V    
O4   	Si13 	1_0_0_0   	5_1_1_1   	1.61   V    
O4   	Si14 	1_0_0_0   	5_1_1_1   	1.61   V    
O5   	Si14 	1_0_0_0   	1_0_0_0   	1.611  V    
O5   	Si18 	1_0_0_0   	6_0_0_1   	1.611  V    
O6   	Si9  	1_0_0_0   	1_0_0_0   	1.61   V    
O6   	Si11 	1_0_0_0   	6_-1_0_1  	1.61   V    
O7   	Si9  	1_0_0_0   	1_0_0_0   	1.61   V    
O7   	Si16 	1_0_0_0   	7_0_1_0   	1.61   V    
O8   	Si11 	1_0_0_0   	1_0_0_0   	1.61   V    
O8   	Si12 	1_0_0_0   	1_0_0_0   	1.611  V    
O9   	Si9  	1_0_0_0   	1_0_0_0   	1.609  V    
O9   	Si22 	1_0_0_0   	1_0_0_0   	1.609  V    
O10  	Si10 	1_0_0_0   	1_0_0_0   	1.609  V    
O10  	Si13 	1_0_0_0   	1_0_0_0   	1.61   V    
O11  	Si19 	1_0_0_0   	2_0_1_-1  	1.61   V    
O11  	Si15 	1_0_0_0   	5_1_1_1   	1.61   V    
O12  	Si1  	1_0_0_0   	5_1_1_1   	1.61   V    
O12  	Si7  	1_0_0_0   	5_1_1_1   	1.611  V    
O13  	Si10 	1_0_0_0   	1_0_0_0   	1.609  V    
O13  	Si3  	1_0_0_0   	1_0_0_0   	1.609  V    
O14  	Si1  	1_0_0_0   	1_0_0_0   	1.61   V    
O14  	Si13 	1_0_0_0   	1_0_0_0   	1.61   V    
O15  	Si2  	1_0_0_0   	5_1_1_1   	1.61   V    
O15  	Si18 	1_0_0_0   	6_0_0_1   	1.61   V    
O16  	Si4  	1_0_0_0   	5_1_1_1   	1.609  V    
O16  	Si14 	1_0_0_0   	5_1_1_1   	1.61   V    
O17  	Si1  	1_0_0_0   	1_0_0_0   	1.609  V    
O17  	Si3  	1_0_0_0   	6_0_0_1   	1.609  V    
O18  	Si17 	1_0_0_0   	2_0_1_-1  	1.609  V    
O18  	Si18 	1_0_0_0   	2_0_1_-1  	1.609  V    
O19  	Si5  	1_0_0_0   	1_0_0_0   	1.609  V    
O19  	Si10 	1_0_0_0   	5_1_1_1   	1.609  V    
O20  	Si3  	1_0_0_0   	1_0_0_0   	1.611  V    
O20  	Si2  	1_0_0_0   	1_0_0_1   	1.61   V    
O21  	Si4  	1_0_0_0   	6_-1_0_0  	1.61   V    
O21  	Si7  	1_0_0_0   	5_1_1_1   	1.61   V    
O22  	Si4  	1_0_0_0   	1_0_0_0   	1.61   V    
O22  	Si10 	1_0_0_0   	5_1_1_1   	1.611  V    
O23  	Si7  	1_0_0_0   	1_0_0_-1  	1.609  V    
O23  	Si17 	1_0_0_0   	5_1_1_1   	1.61   V    
O24  	Si18 	1_0_0_0   	6_0_0_1   	1.61   V    
O24  	Si9  	1_0_0_0   	6_0_0_1   	1.61   V    
O25  	Si3  	1_0_0_0   	1_0_0_0   	1.61   V    
O25  	Si17 	1_0_0_0   	1_0_0_0   	1.61   V    
O26  	Si12 	1_0_0_0   	1_0_0_0   	1.608  V    
O26  	Si21 	1_0_0_0   	1_0_0_0   	1.609  V    
O27  	Si13 	1_0_0_0   	1_0_0_0   	1.61   V    
O27  	Si5  	1_0_0_0   	1_0_0_0   	1.61   V    
O28  	Si4  	1_0_0_0   	1_0_0_0   	1.611  V    
O28  	Si12 	1_0_0_0   	1_0_0_0   	1.611  V    
O29  	Si7  	1_0_0_0   	5_1_1_1   	1.609  V    
O29  	Si15 	1_0_0_0   	5_1_1_1   	1.61   V    
O30  	Si2  	1_0_0_0   	1_0_0_0   	1.609  V    
O30  	Si5  	1_0_0_0   	6_-1_0_0  	1.609  V    
O31  	Si6  	1_0_0_0   	1_0_0_0   	1.611  V    
O31  	Si14 	1_0_0_0   	5_1_1_1   	1.611  V    
O32  	Si2  	1_0_0_0   	1_0_0_0   	1.611  V    
O32  	Si1  	1_0_0_0   	5_1_1_1   	1.611  V    
O33  	Si16 	1_0_0_0   	7_0_1_0   	1.61   V    
O33  	Si15 	1_0_0_0   	5_1_1_2   	1.61   V    
O34  	Si20 	1_0_0_0   	1_0_0_0   	1.609  V    
O34  	Si8  	1_0_0_0   	7_0_1_0   	1.609  V    
O35  	Si6  	1_0_0_0   	1_0_0_0   	1.609  V    
O35  	Si17 	1_0_0_0   	5_1_1_1   	1.609  V    
O36  	Si15 	1_0_0_0   	1_0_0_0   	1.61   V    
O36  	Si12 	1_0_0_0   	2_1_1_0   	1.61   V    
O37  	Si6  	1_0_0_0   	3_1_0_1   	1.61   V    
O37  	Si8  	1_0_0_0   	7_0_1_0   	1.611  V    
Si1  	O12  	1_0_0_0   	5_1_1_1   	1.61   V    
Si1  	O32  	1_0_0_0   	5_1_1_1   	1.611  V    
Si2  	O15  	1_0_0_0   	5_1_1_1   	1.61   V    
Si2  	O20  	1_0_0_0   	1_0_0_-1  	1.61   V    
Si3  	O17  	1_0_0_0   	6_-1_0_1  	1.609  V    
Si4  	O16  	1_0_0_0   	5_1_1_1   	1.609  V    
Si4  	O21  	1_0_0_0   	6_0_0_0   	1.61   V    
Si5  	O1   	1_0_0_0   	5_1_1_1   	1.61   V    
Si5  	O30  	1_0_0_0   	6_0_0_0   	1.609  V    
Si6  	O1   	1_0_0_0   	5_1_1_1   	1.61   V    
Si6  	O37  	1_0_0_0   	3_1_-1_1  	1.61   V    
Si7  	O12  	1_0_0_0   	5_1_1_1   	1.611  V    
Si7  	O21  	1_0_0_0   	5_1_1_1   	1.61   V    
Si7  	O23  	1_0_0_0   	1_0_0_1   	1.609  V    
Si7  	O29  	1_0_0_0   	5_1_1_1   	1.609  V    
Si8  	O34  	1_0_0_0   	7_0_1_0   	1.609  V    
Si8  	O37  	1_0_0_0   	7_0_1_0   	1.611  V    
Si9  	O24  	1_0_0_0   	6_-1_0_1  	1.61   V    
Si10 	O19  	1_0_0_0   	5_1_1_1   	1.609  V    
Si10 	O22  	1_0_0_0   	5_1_1_1   	1.611  V    
Si11 	O38  	1_0_0_0   	1_0_0_0   	1.609  V    
Si11 	O6   	1_0_0_0   	6_0_0_1   	1.61   V    
Si12 	O36  	1_0_0_0   	2_1_1_-1  	1.61   V    
Si13 	O4   	1_0_0_0   	5_1_1_1   	1.61   V    
Si14 	O4   	1_0_0_0   	5_1_1_1   	1.61   V    
Si14 	O16  	1_0_0_0   	5_1_1_1   	1.61   V    
Si14 	O31  	1_0_0_0   	5_1_1_1   	1.611  V    
Si15 	O11  	1_0_0_0   	5_1_1_1   	1.61   V    
Si15 	O29  	1_0_0_0   	5_1_1_1   	1.61   V    
Si15 	O33  	1_0_0_0   	5_1_1_2   	1.61   V    
Si16 	O40  	1_0_0_0   	1_0_0_0   	1.609  V    
Si16 	O3   	1_0_0_0   	7_0_1_0   	1.61   V    
Si16 	O7   	1_0_0_0   	7_0_1_0   	1.61   V    
Si16 	O33  	1_0_0_0   	7_0_1_0   	1.61   V    
Si17 	O18  	1_0_0_0   	2_0_1_0   	1.609  V    
Si17 	O23  	1_0_0_0   	5_1_1_1   	1.61   V    
Si17 	O35  	1_0_0_0   	5_1_1_1   	1.609  V    
Si18 	O5   	1_0_0_0   	6_-1_0_1  	1.611  V    
Si18 	O15  	1_0_0_0   	6_-1_0_1  	1.61   V    
Si18 	O18  	1_0_0_0   	2_0_1_0   	1.609  V    
Si18 	O24  	1_0_0_0   	6_-1_0_1  	1.61   V    
ZA1  	ZA12 	1_0_0_0   	1_0_0_0   	2.348  V    
ZA1  	ZA13 	1_0_0_0   	2_1_1_0   	2.336  V    
ZA5  	ZA9  	1_0_0_0   	1_0_0_1   	7.796  V    
ZA5  	ZA5  	1_0_0_0   	5_1_1_2   	3.331  V    
ZA7  	ZA7  	1_0_0_0   	5_1_1_1   	2.376  V    
ZA13 	ZA1  	1_0_0_0   	2_1_1_-1  	2.336  V    
O38  	Si11 	1_0_0_0   	7_0_1_0   	1.609  V    
O39  	Si20 	1_0_0_0   	1_0_0_0   	1.611  V    
O39  	Si22 	1_0_0_0   	1_0_0_0   	1.611  V    
O40  	Si16 	1_0_0_0   	7_0_1_0   	1.609  V    
O41  	Si20 	1_0_0_0   	1_0_0_0   	1.609  V    
O41  	Si21 	1_0_0_0   	1_0_0_0   	1.61   V    
O42  	Si21 	1_0_0_0   	1_0_0_0   	1.61   V    
O43  	Si22 	1_0_0_0   	1_0_0_0   	1.61   V    
O44  	Si19 	1_0_0_0   	2_0_1_-1  	1.61   V    
O45  	Si19 	1_0_0_0   	2_0_1_-1  	1.61   V    
Si20 	O34  	1_0_0_0   	7_0_1_0   	1.609  V    
Si21 	O26  	1_0_0_0   	7_0_1_0   	1.609  V    
Si22 	O9   	1_0_0_0   	7_0_1_0   	1.609  V    
ZA2  	ZA9  	1_0_0_0   	1_0_0_0   	6.184  V    
ZA2  	ZA6  	1_0_0_0   	2_1_1_-1  	4.935  V    
ZA8  	ZA6  	1_0_0_0   	3_1_0_1   	2.828  V    
ZA9  	ZA11 	1_0_0_0   	1_0_0_0   	5.57   V    
ZA9  	ZA5  	1_0_0_0   	1_0_0_-1  	7.796  V    
ZA9  	ZA5  	1_0_0_0   	7_0_1_-1  	7.796  V    
ZA10 	ZA11 	1_0_0_0   	1_0_0_0   	2.642  V    
ZA11 	ZA6  	1_0_0_0   	3_1_0_1   	2.987  V    
Si19 	O11  	1_0_0_0   	2_0_1_0   	1.61   V    
Si19 	O11  	1_0_0_0   	8_0_-1_0  	1.61   V    
Si19 	O44  	1_0_0_0   	2_0_1_0   	1.61   V    
Si19 	O45  	1_0_0_0   	2_0_1_0   	1.61   V    
ZA6  	ZA2  	1_0_0_0   	2_1_1_0   	4.935  V    
ZA6  	ZA8  	1_0_0_0   	3_1_-1_1  	2.828  V    
ZA6  	ZA11 	1_0_0_0   	3_1_-1_1  	2.987  V    
