data_ITG-PPT1
_audit_creation_method             	Write2Cif_ToposPro  
_symmetry_space_group_name_H-M     	P2/M                
_symmetry_Int_Tables_number        	10                  
_symmetry_cell_setting             	monoclinic system   
_cell_length_a                     	12.7411             
_cell_length_b                     	12.6989             
_cell_length_c                     	20.9991             
_cell_angle_alpha                  	90.0                
_cell_angle_beta                   	96.29               
_cell_angle_gamma                  	90.0                
loop_
_symmetry_equiv_pos_as_xyz
x,y,z
-x,y,-z
-x,-y,-z
x,-y,z
loop_
_atom_site_label
_atom_site_type_symbol
_atom_site_fract_x
_atom_site_fract_y
_atom_site_fract_z
O1        	O         	0.0219    	0.32      	0.0908    
O2        	O         	0.2225    	0.3738    	0.1129    
O3        	O         	0.3841    	0.3237    	0.1964    
O4        	O         	0.1911    	0.3175    	0.2293    
O5        	O         	0.0916    	0.1921    	0.3025    
O6        	O         	0.0598    	0.3964    	0.3051    
O7        	O         	0.2413    	0.3173    	0.3541    
O8        	O         	0.2474    	0.3236    	0.4797    
O9        	O         	0.4137    	0.3794    	0.4235    
O10       	O         	0.4786    	0.3203    	0.3144    
O11       	O         	0.6092    	0.3187    	0.4201    
O12       	O         	0.7743    	0.1933    	0.4253    
O13       	O         	0.7971    	0.3966    	0.4092    
O14       	O         	0.8402    	0.3965    	0.1176    
O15       	O         	0.5772    	0.3966    	0.2213    
O16       	O         	0.5429    	0.1938    	0.2266    
O17       	O         	0.7321    	0.1579    	0.1905    
O18       	O         	0.6969    	0.1302    	0.3106    
O19       	O         	0.9014    	0.1594    	0.3367    
O20       	O         	0.9373    	0.1324    	0.2168    
O21       	O         	0.8601    	0.1931    	0.1019    
O22       	O         	0.8583    	0.3209    	0.0031    
Si1       	Si        	0.6467    	0.1207    	0.2371    
Si2       	Si        	0.7955    	0.1207    	0.3651    
Si3       	Si        	0.9866    	0.1212    	0.2903    
Si4       	Si        	0.8387    	0.1211    	0.1623    
Si5       	Si        	0.1183    	0.3788    	0.0621    
Si6       	Si        	0.2697    	0.3789    	0.1872    
Si7       	Si        	0.1459    	0.3059    	0.2976    
Si8       	Si        	0.2866    	0.3801    	0.4179    
Si9       	Si        	0.5118    	0.3799    	0.3812    
Si10      	Si        	0.7332    	0.3079    	0.4439    
Si11      	Si        	0.4953    	0.3082    	0.2398    
Si12      	Si        	0.8956    	0.3071    	0.0784    
ZA4       	ZA        	0.79415   	0.31482   	0.27298   
ZA16      	ZA        	0.0117    	0.32662   	0.1906    
O23       	O         	0.0875    	0.5       	0.0473    
O24       	O         	0.2801    	0.5       	0.2097    
O25       	O         	0.2453    	0.5       	0.4137    
O26       	O         	0.5442    	0.5       	0.3682    
O27       	O         	0.6811    	0.5       	0.3177    
O28       	O         	0.8873    	0.5       	0.3219    
O29       	O         	0.9564    	0.5       	0.2089    
O30       	O         	0.7501    	0.5       	0.2047    
Si13      	Si        	0.79      	0.5       	0.3646    
Si14      	Si        	0.9914    	0.5       	0.2849    
Si15      	Si        	0.8474    	0.5       	0.162     
Si16      	Si        	0.6459    	0.5       	0.2416    
ZA6       	ZA        	0.06978   	0.5       	0.16975   
ZA10      	ZA        	0.33799   	0.5       	0.29783   
ZA13      	ZA        	0.61456   	0.5       	0.342     
O31       	O         	0.6145    	0.0       	0.2217    
O32       	O         	0.8092    	0.0       	0.3879    
O33       	O         	0.8272    	0.0       	0.1399    
O34       	O         	0.0168    	0.0       	0.3055    
ZA1       	ZA        	0.81687   	0.0       	0.2637    
ZA2       	ZA        	0.5       	0.0       	0.5       
ZA3       	ZA        	0.5       	0.0       	-0.0      
ZA5       	ZA        	0.0       	0.0       	0.5       
ZA7       	ZA        	0.5       	0.5       	-0.0      
ZA8       	ZA        	0.0       	0.0       	0.0       
ZA9       	ZA        	0.0       	0.5       	0.0       
ZA11      	ZA        	0.5       	0.5       	0.5       
ZA12      	ZA        	0.0       	0.5       	0.5       
ZA14      	ZA        	0.5       	0.32685   	-0.0      
ZA15      	ZA        	0.0       	0.3194    	0.5       
loop_
_topos_bond_atom_site_label_1
_topos_bond_atom_site_label_2
_topos_bond_site_symmetry_1
_topos_bond_site_symmetry_2
_topos_bond_distance
_topos_bond_type
O1   	Si5  	1_0_0_0   	1_0_0_0   	1.61   V    
O1   	Si12 	1_0_0_0   	1_-1_0_0  	1.61   V    
O2   	Si5  	1_0_0_0   	1_0_0_0   	1.611  V    
O2   	Si6  	1_0_0_0   	1_0_0_0   	1.611  V    
O3   	Si6  	1_0_0_0   	1_0_0_0   	1.61   V    
O3   	Si11 	1_0_0_0   	1_0_0_0   	1.611  V    
O4   	Si6  	1_0_0_0   	1_0_0_0   	1.608  V    
O4   	Si7  	1_0_0_0   	1_0_0_0   	1.61   V    
O5   	Si7  	1_0_0_0   	1_0_0_0   	1.61   V    
O5   	Si3  	1_0_0_0   	1_-1_0_0  	1.61   V    
O6   	Si7  	1_0_0_0   	1_0_0_0   	1.608  V    
O6   	Si14 	1_0_0_0   	1_-1_0_0  	1.609  V    
O7   	Si7  	1_0_0_0   	1_0_0_0   	1.609  V    
O7   	Si8  	1_0_0_0   	1_0_0_0   	1.611  V    
O8   	Si8  	1_0_0_0   	1_0_0_0   	1.609  V    
O8   	Si10 	1_0_0_0   	2_1_0_1   	1.609  V    
O9   	Si9  	1_0_0_0   	1_0_0_0   	1.611  V    
O9   	Si8  	1_0_0_0   	1_0_0_0   	1.611  V    
O10  	Si9  	1_0_0_0   	1_0_0_0   	1.609  V    
O10  	Si11 	1_0_0_0   	1_0_0_0   	1.611  V    
O11  	Si9  	1_0_0_0   	1_0_0_0   	1.609  V    
O11  	Si10 	1_0_0_0   	1_0_0_0   	1.61   V    
O12  	Si10 	1_0_0_0   	1_0_0_0   	1.609  V    
O12  	Si2  	1_0_0_0   	1_0_0_0   	1.611  V    
O13  	Si13 	1_0_0_0   	1_0_0_0   	1.61   V    
O13  	Si10 	1_0_0_0   	1_0_0_0   	1.61   V    
O14  	Si15 	1_0_0_0   	1_0_0_0   	1.608  V    
O14  	Si12 	1_0_0_0   	1_0_0_0   	1.61   V    
O15  	Si11 	1_0_0_0   	1_0_0_0   	1.609  V    
O15  	Si16 	1_0_0_0   	1_0_0_0   	1.609  V    
O16  	Si11 	1_0_0_0   	1_0_0_0   	1.61   V    
O16  	Si1  	1_0_0_0   	1_0_0_0   	1.611  V    
O17  	Si4  	1_0_0_0   	1_0_0_0   	1.609  V    
O17  	Si1  	1_0_0_0   	1_0_0_0   	1.612  V    
O18  	Si2  	1_0_0_0   	1_0_0_0   	1.609  V    
O18  	Si1  	1_0_0_0   	1_0_0_0   	1.609  V    
O19  	Si2  	1_0_0_0   	1_0_0_0   	1.611  V    
O19  	Si3  	1_0_0_0   	1_0_0_0   	1.611  V    
O20  	Si3  	1_0_0_0   	1_0_0_0   	1.608  V    
O20  	Si4  	1_0_0_0   	1_0_0_0   	1.61   V    
O21  	Si12 	1_0_0_0   	1_0_0_0   	1.61   V    
O21  	Si4  	1_0_0_0   	1_0_0_0   	1.611  V    
O22  	Si12 	1_0_0_0   	1_0_0_0   	1.61   V    
O22  	Si5  	1_0_0_0   	2_1_0_0   	1.61   V    
Si1  	O31  	1_0_0_0   	1_0_0_0   	1.61   V    
Si2  	O32  	1_0_0_0   	1_0_0_0   	1.61   V    
Si3  	O5   	1_0_0_0   	1_1_0_0   	1.61   V    
Si3  	O34  	1_0_0_0   	1_1_0_0   	1.61   V    
Si4  	O33  	1_0_0_0   	1_0_0_0   	1.61   V    
Si5  	O23  	1_0_0_0   	1_0_0_0   	1.61   V    
Si5  	O22  	1_0_0_0   	2_1_0_0   	1.61   V    
Si6  	O24  	1_0_0_0   	1_0_0_0   	1.61   V    
Si8  	O25  	1_0_0_0   	1_0_0_0   	1.61   V    
Si9  	O26  	1_0_0_0   	1_0_0_0   	1.611  V    
Si10 	O8   	1_0_0_0   	2_1_0_1   	1.609  V    
Si12 	O1   	1_0_0_0   	1_1_0_0   	1.61   V    
ZA16 	ZA6  	1_0_0_0   	1_0_0_0   	2.379  V    
O23  	Si5  	1_0_0_0   	4_0_1_0   	1.61   V    
O24  	Si6  	1_0_0_0   	4_0_1_0   	1.61   V    
O25  	Si8  	1_0_0_0   	4_0_1_0   	1.61   V    
O26  	Si9  	1_0_0_0   	4_0_1_0   	1.611  V    
O27  	Si13 	1_0_0_0   	1_0_0_0   	1.611  V    
O27  	Si16 	1_0_0_0   	1_0_0_0   	1.612  V    
O28  	Si13 	1_0_0_0   	1_0_0_0   	1.608  V    
O28  	Si14 	1_0_0_0   	1_0_0_0   	1.609  V    
O29  	Si14 	1_0_0_0   	1_0_0_0   	1.609  V    
O29  	Si15 	1_0_0_0   	1_0_0_0   	1.612  V    
O30  	Si15 	1_0_0_0   	1_0_0_0   	1.608  V    
O30  	Si16 	1_0_0_0   	1_0_0_0   	1.609  V    
Si13 	O13  	1_0_0_0   	4_0_1_0   	1.61   V    
Si14 	O6   	1_0_0_0   	1_1_0_0   	1.609  V    
Si14 	O6   	1_0_0_0   	4_1_1_0   	1.609  V    
Si15 	O14  	1_0_0_0   	4_0_1_0   	1.608  V    
Si16 	O15  	1_0_0_0   	4_0_1_0   	1.609  V    
ZA6  	ZA16 	1_0_0_0   	4_0_1_0   	2.379  V    
O31  	Si1  	1_0_0_0   	4_0_0_0   	1.61   V    
O32  	Si2  	1_0_0_0   	4_0_0_0   	1.61   V    
O33  	Si4  	1_0_0_0   	4_0_0_0   	1.61   V    
O34  	Si3  	1_0_0_0   	1_-1_0_0  	1.61   V    
O34  	Si3  	1_0_0_0   	4_-1_0_0  	1.61   V    
ZA2  	ZA3  	1_0_0_0   	1_0_0_0   	10.5   V    
ZA2  	ZA3  	1_0_0_0   	1_0_0_1   	10.5   V    
ZA2  	ZA5  	1_0_0_0   	1_0_0_0   	6.371  V    
ZA2  	ZA5  	1_0_0_0   	1_1_0_0   	6.371  V    
ZA3  	ZA2  	1_0_0_0   	1_0_0_-1  	10.5   V    
ZA3  	ZA8  	1_0_0_0   	1_1_0_0   	6.371  V    
ZA3  	ZA14 	1_0_0_0   	3_1_0_0   	4.151  V    
ZA5  	ZA2  	1_0_0_0   	1_-1_0_0  	6.371  V    
ZA5  	ZA15 	1_0_0_0   	3_0_0_1   	4.056  V    
ZA7  	ZA14 	1_0_0_0   	3_1_1_0   	2.199  V    
ZA8  	ZA3  	1_0_0_0   	1_-1_0_0  	6.371  V    
ZA12 	ZA15 	1_0_0_0   	3_0_1_1   	2.293  V    
