data_IWW-PPT1
_audit_creation_method             	Write2Cif_ToposPro  
_symmetry_space_group_name_H-M     	PBAM                
_symmetry_Int_Tables_number        	55                  
_symmetry_cell_setting             	orthorhombic system 
_cell_length_a                     	41.691              
_cell_length_b                     	12.713              
_cell_length_c                     	12.711              
_cell_angle_alpha                  	90.0                
_cell_angle_beta                   	90.0                
_cell_angle_gamma                  	90.0                
loop_
_symmetry_equiv_pos_as_xyz
x,y,z
-x,-y,z
-x+1/2,y+1/2,-z
x+1/2,-y+1/2,-z
-x,-y,-z
x,y,-z
x+1/2,-y+1/2,z
-x+1/2,y+1/2,z
loop_
_atom_site_label
_atom_site_type_symbol
_atom_site_fract_x
_atom_site_fract_y
_atom_site_fract_z
O1        	O         	0.4099    	0.8123    	0.1382    
O2        	O         	0.3477    	0.8398    	0.1547    
O3        	O         	0.3864    	0.9973    	0.1941    
O4        	O         	0.388     	0.6196    	0.1568    
O5        	O         	0.4487    	0.6575    	0.1931    
O6        	O         	0.3258    	0.6469    	0.1353    
O7        	O         	0.3485    	0.4621    	0.1925    
O8        	O         	0.287     	0.7998    	0.1939    
O9        	O         	0.3891    	0.9618    	0.3967    
O10       	O         	0.441     	0.6806    	0.3965    
O11       	O         	0.3472    	0.4941    	0.3965    
O12       	O         	0.295     	0.775     	0.3968    
O13       	O         	0.3233    	0.3201    	0.3177    
O14       	O         	0.3856    	0.3504    	0.3175    
O15       	O         	0.3426    	0.078     	0.3209    
O16       	O         	0.4017    	0.1507    	0.3238    
O17       	O         	0.2394    	0.8406    	0.3235    
O18       	O         	0.2898    	0.9651    	0.3183    
O19       	O         	0.4545    	0.4939    	0.3204    
O20       	O         	0.4983    	0.6426    	0.3206    
O21       	O         	0.2877    	0.1617    	0.3789    
O22       	O         	0.4438    	0.2966    	0.3741    
Si1       	Si        	0.381     	0.8948    	0.1217    
Si2       	Si        	0.4183    	0.6898    	0.1219    
Si3       	Si        	0.3549    	0.5647    	0.1214    
Si4       	Si        	0.3172    	0.7696    	0.121     
Si5       	Si        	0.3512    	0.4067    	0.306     
Si6       	Si        	0.3798    	0.0474    	0.3084    
Si7       	Si        	0.2777    	0.8453    	0.3081    
Si8       	Si        	0.4606    	0.6183    	0.3071    
Si9       	Si        	0.2911    	0.2879    	0.3801    
Si10      	Si        	0.309     	0.0561    	0.3799    
Si11      	Si        	0.4065    	0.2635    	0.3791    
Si12      	Si        	0.4691    	0.3922    	0.379     
ZA4       	ZA        	0.36322   	0.75415   	0.31504   
ZA13      	ZA        	0.40459   	0.52185   	0.32681   
ZA14      	ZA        	0.28891   	0.58969   	0.33047   
O23       	O         	0.3794    	0.9296    	0.0       
O24       	O         	0.4264    	0.668     	0.0       
O25       	O         	0.3575    	0.5296    	0.0       
O26       	O         	0.3084    	0.7928    	0.0       
ZA1       	ZA        	0.36785   	0.72973   	0.0       
ZA2       	ZA        	0.28402   	0.10787   	0.0       
O27       	O         	0.3971    	0.7856    	0.5       
O28       	O         	0.3406    	0.8759    	0.5       
O29       	O         	0.3955    	0.5796    	0.5       
O30       	O         	0.339     	0.67      	0.5       
O31       	O         	0.2934    	0.328     	0.5       
O32       	O         	0.3154    	0.0215    	0.5       
O33       	O         	0.3952    	0.2575    	0.5       
O34       	O         	0.4766    	0.4202    	0.5       
Si13      	Si        	0.3787    	0.8969    	0.5       
Si14      	Si        	0.4187    	0.6809    	0.5       
Si15      	Si        	0.3574    	0.5587    	0.5       
Si16      	Si        	0.3174    	0.7747    	0.5       
ZA7       	ZA        	0.23721   	0.03777   	0.5       
ZA8       	ZA        	0.35094   	0.2149    	0.5       
ZA9       	ZA        	0.41509   	0.4601    	0.5       
ZA11      	ZA        	0.32864   	0.94615   	0.5       
ZA3       	ZA        	0.5       	0.0       	0.0       
ZA5       	ZA        	0.5       	0.5       	0.0       
ZA6       	ZA        	0.5       	0.5       	0.5       
ZA10      	ZA        	0.5       	0.0       	0.5       
ZA12      	ZA        	0.5       	0.0       	0.32715   
loop_
_topos_bond_atom_site_label_1
_topos_bond_atom_site_label_2
_topos_bond_site_symmetry_1
_topos_bond_site_symmetry_2
_topos_bond_distance
_topos_bond_type
O1   	Si2  	1_0_0_0   	1_0_0_0   	1.61   V    
O1   	Si1  	1_0_0_0   	1_0_0_0   	1.611  V    
O2   	Si1  	1_0_0_0   	1_0_0_0   	1.61   V    
O2   	Si4  	1_0_0_0   	1_0_0_0   	1.611  V    
O3   	Si1  	1_0_0_0   	1_0_0_0   	1.611  V    
O3   	Si6  	1_0_0_0   	1_0_1_0   	1.61   V    
O4   	Si2  	1_0_0_0   	1_0_0_0   	1.609  V    
O4   	Si3  	1_0_0_0   	1_0_0_0   	1.611  V    
O5   	Si2  	1_0_0_0   	1_0_0_0   	1.611  V    
O5   	Si8  	1_0_0_0   	1_0_0_0   	1.611  V    
O6   	Si4  	1_0_0_0   	1_0_0_0   	1.611  V    
O6   	Si3  	1_0_0_0   	1_0_0_0   	1.611  V    
O7   	Si3  	1_0_0_0   	1_0_0_0   	1.609  V    
O7   	Si5  	1_0_0_0   	1_0_0_0   	1.609  V    
O8   	Si4  	1_0_0_0   	1_0_0_0   	1.61   V    
O8   	Si7  	1_0_0_0   	1_0_0_0   	1.61   V    
O9   	Si13 	1_0_0_0   	1_0_0_0   	1.61   V    
O9   	Si6  	1_0_0_0   	1_0_1_0   	1.611  V    
O10  	Si8  	1_0_0_0   	1_0_0_0   	1.608  V    
O10  	Si14 	1_0_0_0   	1_0_0_0   	1.611  V    
O11  	Si5  	1_0_0_0   	1_0_0_0   	1.608  V    
O11  	Si15 	1_0_0_0   	1_0_0_0   	1.608  V    
O12  	Si7  	1_0_0_0   	1_0_0_0   	1.609  V    
O12  	Si16 	1_0_0_0   	1_0_0_0   	1.61   V    
O13  	Si5  	1_0_0_0   	1_0_0_0   	1.608  V    
O13  	Si9  	1_0_0_0   	1_0_0_0   	1.612  V    
O14  	Si5  	1_0_0_0   	1_0_0_0   	1.61   V    
O14  	Si11 	1_0_0_0   	1_0_0_0   	1.61   V    
O15  	Si6  	1_0_0_0   	1_0_0_0   	1.607  V    
O15  	Si10 	1_0_0_0   	1_0_0_0   	1.613  V    
O16  	Si11 	1_0_0_0   	1_0_0_0   	1.61   V    
O16  	Si6  	1_0_0_0   	1_0_0_0   	1.611  V    
O17  	Si7  	1_0_0_0   	1_0_0_0   	1.61   V    
O17  	Si9  	1_0_0_0   	8_0_0_0   	1.607  V    
O18  	Si7  	1_0_0_0   	1_0_0_0   	1.61   V    
O18  	Si10 	1_0_0_0   	1_0_1_0   	1.61   V    
O19  	Si8  	1_0_0_0   	1_0_0_0   	1.611  V    
O19  	Si12 	1_0_0_0   	1_0_0_0   	1.612  V    
O20  	Si8  	1_0_0_0   	1_0_0_0   	1.611  V    
O20  	Si12 	1_0_0_0   	2_1_1_0   	1.611  V    
O21  	Si10 	1_0_0_0   	1_0_0_0   	1.61   V    
O21  	Si9  	1_0_0_0   	1_0_0_0   	1.611  V    
O22  	Si12 	1_0_0_0   	1_0_0_0   	1.61   V    
O22  	Si11 	1_0_0_0   	1_0_0_0   	1.612  V    
Si1  	O23  	1_0_0_0   	1_0_0_0   	1.61   V    
Si2  	O24  	1_0_0_0   	1_0_0_0   	1.61   V    
Si3  	O25  	1_0_0_0   	1_0_0_0   	1.61   V    
Si4  	O26  	1_0_0_0   	1_0_0_0   	1.608  V    
Si6  	O3   	1_0_0_0   	1_0_-1_0  	1.61   V    
Si6  	O9   	1_0_0_0   	1_0_-1_0  	1.611  V    
Si9  	O17  	1_0_0_0   	8_0_-1_0  	1.607  V    
Si9  	O31  	1_0_0_0   	1_0_0_0   	1.61   V    
Si10 	O18  	1_0_0_0   	1_0_-1_0  	1.61   V    
Si10 	O32  	1_0_0_0   	1_0_0_0   	1.611  V    
Si11 	O33  	1_0_0_0   	1_0_0_0   	1.609  V    
Si12 	O20  	1_0_0_0   	2_1_1_0   	1.611  V    
Si12 	O34  	1_0_0_0   	1_0_0_0   	1.609  V    
ZA13 	ZA9  	1_0_0_0   	1_0_0_0   	2.378  V    
ZA14 	ZA2  	1_0_0_0   	3_0_0_0   	5.191  V    
ZA14 	ZA7  	1_0_0_0   	3_0_0_1   	2.503  V    
O23  	Si1  	1_0_0_0   	6_0_0_0   	1.61   V    
O24  	Si2  	1_0_0_0   	6_0_0_0   	1.61   V    
O25  	Si3  	1_0_0_0   	6_0_0_0   	1.61   V    
O26  	Si4  	1_0_0_0   	6_0_0_0   	1.608  V    
ZA2  	ZA3  	1_0_0_0   	1_0_0_0   	9.108  V    
ZA2  	ZA2  	1_0_0_0   	3_0_-1_0  	6.961  V    
ZA2  	ZA2  	1_0_0_0   	3_0_0_0   	6.961  V    
ZA2  	ZA14 	1_0_0_0   	8_0_-1_0  	5.191  V    
ZA2  	ZA14 	1_0_0_0   	3_0_-1_0  	5.191  V    
O27  	Si14 	1_0_0_0   	1_0_0_0   	1.607  V    
O27  	Si13 	1_0_0_0   	1_0_0_0   	1.61   V    
O28  	Si16 	1_0_0_0   	1_0_0_0   	1.61   V    
O28  	Si13 	1_0_0_0   	1_0_0_0   	1.611  V    
O29  	Si15 	1_0_0_0   	1_0_0_0   	1.61   V    
O29  	Si14 	1_0_0_0   	1_0_0_0   	1.611  V    
O30  	Si16 	1_0_0_0   	1_0_0_0   	1.607  V    
O30  	Si15 	1_0_0_0   	1_0_0_0   	1.61   V    
O31  	Si9  	1_0_0_0   	6_0_0_1   	1.61   V    
O32  	Si10 	1_0_0_0   	6_0_0_1   	1.611  V    
O33  	Si11 	1_0_0_0   	6_0_0_1   	1.609  V    
O34  	Si12 	1_0_0_0   	6_0_0_1   	1.609  V    
Si13 	O9   	1_0_0_0   	6_0_0_1   	1.61   V    
Si14 	O10  	1_0_0_0   	6_0_0_1   	1.611  V    
Si15 	O11  	1_0_0_0   	6_0_0_1   	1.608  V    
Si16 	O12  	1_0_0_0   	6_0_0_1   	1.61   V    
ZA7  	ZA14 	1_0_0_0   	3_0_-1_1  	2.503  V    
ZA7  	ZA14 	1_0_0_0   	8_0_-1_0  	2.503  V    
ZA9  	ZA13 	1_0_0_0   	6_0_0_1   	2.378  V    
ZA3  	ZA2  	1_0_0_0   	2_1_0_0   	9.108  V    
ZA3  	ZA5  	1_0_0_0   	1_0_0_0   	6.356  V    
ZA3  	ZA5  	1_0_0_0   	1_0_-1_0  	6.356  V    
ZA3  	ZA12 	1_0_0_0   	5_1_0_0   	4.158  V    
ZA5  	ZA3  	1_0_0_0   	1_0_1_0   	6.356  V    
ZA10 	ZA12 	1_0_0_0   	5_1_0_1   	2.197  V    
