data_JNT-NT
_audit_creation_method             	Write2Cif_ToposPro  
_symmetry_space_group_name_H-M     	P21/C               
_symmetry_Int_Tables_number        	14                  
_symmetry_cell_setting             	monoclinic system   
_cell_length_a                     	8.2065              
_cell_length_b                     	14.1364             
_cell_length_c                     	16.1075             
_cell_angle_alpha                  	90.0                
_cell_angle_beta                   	123.4615            
_cell_angle_gamma                  	90.0                
loop_
_symmetry_equiv_pos_as_xyz
x,y,z
-x,y+1/2,-z+1/2
-x,-y,-z
x,-y+1/2,z+1/2
loop_
_atom_site_label
_atom_site_type_symbol
_atom_site_fract_x
_atom_site_fract_y
_atom_site_fract_z
O1        	O         	0.63057   	0.4028    	0.14882   
O2        	O         	0.28674   	0.32632   	0.07491   
O3        	O         	0.5269    	0.258     	0.02535   
O4        	O         	0.85119   	0.37278   	0.8537    
O5        	O         	0.60127   	0.23066   	0.20178   
O6        	O         	0.12988   	0.278     	0.64709   
O7        	O         	0.2341    	0.428     	0.76862   
O8        	O         	0.50277   	0.11389   	0.91018   
O9        	O         	0.61549   	0.4605    	0.89012   
O10       	O         	0.93836   	0.37169   	0.03611   
O11       	O         	0.6336    	0.27714   	0.89826   
O12       	O         	0.24501   	0.10679   	0.7161    
O13       	O         	0.91798   	0.32883   	0.71487   
O14       	O         	0.35436   	0.95019   	0.82414   
O15       	O         	0.59153   	0.03671   	0.78952   
O16       	O         	0.26302   	0.25607   	0.83514   
Si1       	Si        	0.13697   	0.32442   	0.74037   
Si2       	Si        	0.5094    	0.30511   	0.11103   
Si3       	Si        	0.42312   	0.05245   	0.81065   
Si4       	Si        	0.76089   	0.37174   	0.92072   
Si5       	Si        	0.48409   	0.22635   	0.91923   
Si6       	Si        	0.14969   	0.17154   	0.61771   
Si7       	Si        	0.75444   	0.35534   	0.7367    
Si8       	Si        	0.40664   	0.50419   	0.80589   
ZA1       	ZA        	0.45745   	0.30692   	0.76452   
ZA3       	ZA        	0.01774   	0.1121    	0.73919   
ZA4       	ZA        	0.4598    	0.24239   	0.7652    
ZA5       	ZA        	0.525     	0.30336   	0.25859   
ZA7       	ZA        	0.5293    	0.85351   	0.76832   
ZA8       	ZA        	0.10551   	0.42595   	0.93908   
ZA10      	ZA        	0.89205   	0.11845   	0.65734   
ZA11      	ZA        	0.23252   	0.50291   	0.92073   
ZA2       	ZA        	0.5       	0.5       	-0.0      
ZA6       	ZA        	0.0       	0.5       	0.0       
ZA9       	ZA        	0.0       	0.0       	0.0       
loop_
_topos_bond_atom_site_label_1
_topos_bond_atom_site_label_2
_topos_bond_site_symmetry_1
_topos_bond_site_symmetry_2
_topos_bond_distance
_topos_bond_type
O1   	Si2  	1_0_0_0   	1_0_0_0   	1.612  V    
O1   	Si8  	1_0_0_0   	3_1_1_1   	1.612  V    
O2   	Si2  	1_0_0_0   	1_0_0_0   	1.611  V    
O2   	Si6  	1_0_0_0   	4_0_0_-1  	1.611  V    
O3   	Si2  	1_0_0_0   	1_0_0_0   	1.609  V    
O3   	Si5  	1_0_0_0   	1_0_0_-1  	1.607  V    
O4   	Si7  	1_0_0_0   	1_0_0_0   	1.61   V    
O4   	Si4  	1_0_0_0   	1_0_0_0   	1.611  V    
O5   	Si2  	1_0_0_0   	1_0_0_0   	1.612  V    
O5   	Si7  	1_0_0_0   	4_0_0_-1  	1.611  V    
O6   	Si1  	1_0_0_0   	1_0_0_0   	1.611  V    
O6   	Si6  	1_0_0_0   	1_0_0_0   	1.612  V    
O7   	Si1  	1_0_0_0   	1_0_0_0   	1.608  V    
O7   	Si8  	1_0_0_0   	1_0_0_0   	1.609  V    
O8   	Si3  	1_0_0_0   	1_0_0_0   	1.611  V    
O8   	Si5  	1_0_0_0   	1_0_0_0   	1.611  V    
O9   	Si4  	1_0_0_0   	1_0_0_0   	1.61   V    
O9   	Si8  	1_0_0_0   	1_0_0_0   	1.611  V    
O10  	Si4  	1_0_0_0   	1_0_0_-1  	1.61   V    
O10  	Si6  	1_0_0_0   	4_1_0_-1  	1.611  V    
O11  	Si5  	1_0_0_0   	1_0_0_0   	1.61   V    
O11  	Si4  	1_0_0_0   	1_0_0_0   	1.611  V    
O12  	Si3  	1_0_0_0   	1_0_0_0   	1.61   V    
O12  	Si6  	1_0_0_0   	1_0_0_0   	1.611  V    
O13  	Si7  	1_0_0_0   	1_0_0_0   	1.608  V    
O13  	Si1  	1_0_0_0   	1_1_0_0   	1.609  V    
O14  	Si7  	1_0_0_0   	2_1_0_1   	1.61   V    
O14  	Si3  	1_0_0_0   	1_0_1_0   	1.61   V    
O15  	Si3  	1_0_0_0   	1_0_0_0   	1.611  V    
O15  	Si8  	1_0_0_0   	2_1_-1_1  	1.612  V    
O16  	Si1  	1_0_0_0   	1_0_0_0   	1.61   V    
O16  	Si5  	1_0_0_0   	1_0_0_0   	1.61   V    
Si1  	O13  	1_0_0_0   	1_-1_0_0  	1.609  V    
Si3  	O14  	1_0_0_0   	1_0_-1_0  	1.61   V    
Si4  	O10  	1_0_0_0   	1_0_0_1   	1.61   V    
Si5  	O3   	1_0_0_0   	1_0_0_1   	1.607  V    
Si6  	O2   	1_0_0_0   	4_0_0_0   	1.611  V    
Si6  	O10  	1_0_0_0   	4_-1_0_0  	1.611  V    
Si7  	O5   	1_0_0_0   	4_0_0_0   	1.611  V    
Si7  	O14  	1_0_0_0   	2_1_-1_1  	1.61   V    
Si8  	O1   	1_0_0_0   	3_1_1_1   	1.612  V    
Si8  	O15  	1_0_0_0   	2_1_0_1   	1.612  V    
ZA1  	ZA4  	1_0_0_0   	1_0_0_0   	0.912  V    
ZA1  	ZA7  	1_0_0_0   	2_1_-1_1  	0.888  V    
ZA3  	ZA9  	1_0_0_0   	1_0_0_1   	4.567  V    
ZA3  	ZA10 	1_0_0_0   	1_-1_0_0  	1.145  V    
ZA4  	ZA5  	1_0_0_0   	4_0_0_0   	0.882  V    
ZA5  	ZA4  	1_0_0_0   	4_0_0_-1  	0.882  V    
ZA7  	ZA1  	1_0_0_0   	2_1_0_1   	0.888  V    
ZA8  	ZA11 	1_0_0_0   	1_0_0_0   	1.642  V    
ZA8  	ZA6  	1_0_0_0   	1_0_0_1   	1.935  V    
ZA10 	ZA3  	1_0_0_0   	1_1_0_0   	1.145  V    
ZA10 	ZA11 	1_0_0_0   	2_1_-1_1  	1.969  V    
ZA11 	ZA2  	1_0_0_0   	1_0_0_1   	1.833  V    
ZA11 	ZA10 	1_0_0_0   	2_1_0_1   	1.969  V    
ZA2  	ZA11 	1_0_0_0   	3_1_1_1   	1.833  V    
ZA2  	ZA11 	1_0_0_0   	1_0_0_-1  	1.833  V    
ZA6  	ZA8  	1_0_0_0   	3_0_1_1   	1.935  V    
ZA6  	ZA8  	1_0_0_0   	1_0_0_-1  	1.935  V    
ZA9  	ZA3  	1_0_0_0   	1_0_0_-1  	4.567  V    
ZA9  	ZA3  	1_0_0_0   	3_0_0_1   	4.567  V    
ZA9  	ZA9  	1_0_0_0   	1_1_0_0   	8.207  V    
ZA9  	ZA9  	1_0_0_0   	1_-1_0_0  	8.207  V    
