data_JZO-NT
_audit_creation_method             	Write2Cif_ToposPro  
_symmetry_space_group_name_H-M     	I41/AMD             
_symmetry_Int_Tables_number        	141                 
_symmetry_cell_setting             	tetragonal system   
_cell_length_a                     	43.4464             
_cell_length_b                     	43.4464             
_cell_length_c                     	25.0574             
_cell_angle_alpha                  	90.0                
_cell_angle_beta                   	90.0                
_cell_angle_gamma                  	90.0                
loop_
_symmetry_equiv_pos_as_xyz
x,y,z
-x+1/2,-y+1/2,z+1/2
-y,x+1/2,z+1/4
y+1/2,-x,z+3/4
-x+1/2,y,-z+3/4
x,-y+1/2,-z+1/4
y+1/2,x+1/2,-z+1/2
-y,-x,-z
-x,-y+1/2,-z+1/4
x+1/2,y,-z+3/4
y,-x,-z
-y+1/2,x+1/2,-z+1/2
x+1/2,-y+1/2,z+1/2
-x,y,z
-y+1/2,-x,z+3/4
y,x+1/2,z+1/4
x+1/2,y+1/2,z+1/2
-x,-y,z
-y+1/2,x,z+3/4
y,-x+1/2,z+1/4
-x,y+1/2,-z+1/4
x+1/2,-y,-z+3/4
y,x,-z
-y+1/2,-x+1/2,-z+1/2
-x+1/2,-y,-z+3/4
x,y+1/2,-z+1/4
y+1/2,-x+1/2,-z+1/2
-y,x,-z
x,-y,z
-x+1/2,y+1/2,z+1/2
-y,-x+1/2,z+1/4
y+1/2,x,z+3/4
loop_
_atom_site_label
_atom_site_type_symbol
_atom_site_fract_x
_atom_site_fract_y
_atom_site_fract_z
O1        	O         	0.21459   	0.75445   	0.26759   
O2        	O         	0.21604   	0.86372   	0.27292   
O3        	O         	0.0574    	0.28487   	0.22334   
O4        	O         	0.19403   	0.76476   	0.36514   
O5        	O         	0.19501   	0.80884   	0.2935    
O6        	O         	0.05845   	0.76406   	0.40188   
O7        	O         	0.25132   	0.83216   	0.20603   
O8        	O         	0.15527   	0.76363   	0.28411   
O9        	O         	0.11668   	0.80968   	0.296     
O10       	O         	0.19456   	0.8509    	0.36908   
O11       	O         	0.09661   	0.75669   	0.25879   
O12       	O         	0.36091   	0.8348    	0.20869   
O13       	O         	0.11501   	0.85647   	0.36323   
O14       	O         	0.09863   	0.86398   	0.26313   
O15       	O         	0.30675   	0.80843   	0.19122   
O16       	O         	0.05855   	0.40119   	0.23133   
O17       	O         	0.11348   	0.76171   	0.35929   
O18       	O         	0.15665   	0.85517   	0.28746   
O19       	O         	0.04191   	0.30756   	0.12985   
O20       	O         	0.25813   	0.77228   	0.20069   
O21       	O         	0.09776   	0.80884   	0.4192    
O22       	O         	0.2555    	0.89259   	0.21349   
O23       	O         	0.27494   	0.85673   	0.29203   
O24       	O         	0.03938   	0.38395   	0.13682   
O25       	O         	0.05847   	0.8533    	0.39934   
O26       	O         	0.05623   	0.8946    	0.21218   
O27       	O         	0.04691   	0.77395   	0.20656   
O28       	O         	0.03908   	0.80803   	0.3384    
O29       	O         	0.0422    	0.75115   	0.30329   
O30       	O         	0.04536   	0.94113   	0.14678   
O31       	O         	0.05555   	0.83382   	0.2114    
O32       	O         	0.04222   	0.34344   	0.21415   
O33       	O         	0.04207   	0.86396   	0.29973   
O34       	O         	0.10516   	0.86171   	0.46683   
O35       	O         	0.05647   	0.45928   	0.20123   
Si1       	Si        	0.24956   	0.86115   	0.24589   
Si2       	Si        	0.18956   	0.77263   	0.3029    
Si3       	Si        	0.09421   	0.77229   	0.41102   
Si4       	Si        	0.06085   	0.25077   	0.24784   
Si5       	Si        	0.12044   	0.77288   	0.2992    
Si6       	Si        	0.03544   	0.30908   	0.19303   
Si7       	Si        	0.34333   	0.80605   	0.18195   
Si8       	Si        	0.19057   	0.84486   	0.30615   
Si9       	Si        	0.12178   	0.84615   	0.30263   
Si10      	Si        	0.06282   	0.86397   	0.24649   
Si11      	Si        	0.27062   	0.80476   	0.17854   
Si12      	Si        	0.036     	0.80677   	0.18353   
Si13      	Si        	0.09389   	0.84546   	0.41249   
Si14      	Si        	0.03542   	0.90672   	0.16337   
Si15      	Si        	0.03505   	0.3789    	0.20005   
Si16      	Si        	0.03488   	0.77239   	0.3544    
Si17      	Si        	0.03557   	0.46514   	0.14915   
Si18      	Si        	0.03491   	0.84395   	0.35241   
ZA1       	ZA        	0.15507   	0.79045   	0.16082   
ZA2       	ZA        	0.14837   	0.8079    	0.40535   
ZA4       	ZA        	0.07331   	0.80812   	0.31222   
ZA6       	ZA        	0.09127   	0.65524   	0.36578   
ZA16      	ZA        	0.15504   	0.84892   	0.08938   
O36       	O         	0.0       	0.81178   	0.19584   
O37       	O         	0.0       	0.30049   	0.20446   
O38       	O         	0.0       	0.90692   	0.18221   
O39       	O         	0.0       	0.8501    	0.37121   
O40       	O         	0.0       	0.38673   	0.21605   
O41       	O         	0.0       	0.45976   	0.37114   
O42       	O         	0.0       	0.76656   	0.37364   
O43       	O         	0.0       	0.45975   	0.16454   
ZA5       	ZA        	0.0       	0.788     	0.57062   
ZA7       	ZA        	0.0       	0.35157   	0.07455   
ZA8       	ZA        	0.0       	0.34702   	0.49125   
ZA11      	ZA        	0.0       	0.93029   	0.04266   
ZA13      	ZA        	0.0       	0.80726   	0.27693   
ZA19      	ZA        	0.0       	0.24517   	0.2447    
Si19      	Si        	0.24996   	0.24996   	0.0       
Si20      	Si        	0.36309   	0.36309   	0.0       
Si21      	Si        	0.06373   	0.06373   	0.0       
ZA3       	ZA        	0.25      	0.80676   	0.375     
ZA18      	ZA        	0.25      	0.65444   	0.375     
ZA9       	ZA        	0.0       	0.25      	0.125     
ZA10      	ZA        	0.09243   	0.0       	0.36815   
ZA12      	ZA        	0.0       	0.0       	0.5       
ZA14      	ZA        	0.0       	0.5       	0.25      
ZA15      	ZA        	0.30607   	0.80607   	0.25      
ZA17      	ZA        	0.25      	0.0       	0.375     
loop_
_topos_bond_atom_site_label_1
_topos_bond_atom_site_label_2
_topos_bond_site_symmetry_1
_topos_bond_site_symmetry_2
_topos_bond_distance
_topos_bond_type
O1   	Si2  	1_0_0_0   	1_0_0_0   	1.609  V    
O1   	Si19 	1_0_0_0   	16_0_0_0  	1.611  V    
O2   	Si8  	1_0_0_0   	1_0_0_0   	1.609  V    
O2   	Si1  	1_0_0_0   	1_0_0_0   	1.61   V    
O3   	Si6  	1_0_0_0   	1_0_0_0   	1.61   V    
O3   	Si4  	1_0_0_0   	1_0_0_0   	1.611  V    
O4   	Si2  	1_0_0_0   	1_0_0_0   	1.608  V    
O4   	Si11 	1_0_0_0   	3_1_0_0   	1.61   V    
O5   	Si2  	1_0_0_0   	1_0_0_0   	1.608  V    
O5   	Si8  	1_0_0_0   	1_0_0_0   	1.608  V    
O6   	Si3  	1_0_0_0   	1_0_0_0   	1.611  V    
O6   	Si16 	1_0_0_0   	1_0_0_0   	1.611  V    
O7   	Si1  	1_0_0_0   	1_0_0_0   	1.609  V    
O7   	Si11 	1_0_0_0   	1_0_0_0   	1.611  V    
O8   	Si2  	1_0_0_0   	1_0_0_0   	1.611  V    
O8   	Si5  	1_0_0_0   	1_0_0_0   	1.611  V    
O9   	Si9  	1_0_0_0   	1_0_0_0   	1.609  V    
O9   	Si5  	1_0_0_0   	1_0_0_0   	1.609  V    
O10  	Si8  	1_0_0_0   	1_0_0_0   	1.608  V    
O10  	Si7  	1_0_0_0   	3_1_0_0   	1.61   V    
O11  	Si5  	1_0_0_0   	1_0_0_0   	1.61   V    
O11  	Si4  	1_0_0_0   	29_0_1_0  	1.611  V    
O12  	Si7  	1_0_0_0   	1_0_0_0   	1.61   V    
O12  	Si20 	1_0_0_0   	16_0_0_0  	1.61   V    
O13  	Si9  	1_0_0_0   	1_0_0_0   	1.61   V    
O13  	Si13 	1_0_0_0   	1_0_0_0   	1.611  V    
O14  	Si9  	1_0_0_0   	1_0_0_0   	1.61   V    
O14  	Si10 	1_0_0_0   	1_0_0_0   	1.611  V    
O15  	Si11 	1_0_0_0   	1_0_0_0   	1.609  V    
O15  	Si7  	1_0_0_0   	1_0_0_0   	1.609  V    
O16  	Si15 	1_0_0_0   	1_0_0_0   	1.611  V    
O16  	Si21 	1_0_0_0   	6_0_0_0   	1.61   V    
O17  	Si3  	1_0_0_0   	1_0_0_0   	1.61   V    
O17  	Si5  	1_0_0_0   	1_0_0_0   	1.611  V    
O18  	Si8  	1_0_0_0   	1_0_0_0   	1.61   V    
O18  	Si9  	1_0_0_0   	1_0_0_0   	1.61   V    
O19  	Si6  	1_0_0_0   	1_0_0_0   	1.609  V    
O19  	Si12 	1_0_0_0   	26_0_-1_0 	1.609  V    
O20  	Si11 	1_0_0_0   	1_0_0_0   	1.611  V    
O20  	Si19 	1_0_0_0   	16_0_0_0  	1.61   V    
O21  	Si3  	1_0_0_0   	1_0_0_0   	1.609  V    
O21  	Si13 	1_0_0_0   	1_0_0_0   	1.609  V    
O22  	Si1  	1_0_0_0   	1_0_0_0   	1.61   V    
O22  	Si3  	1_0_0_0   	4_-1_1_-1 	1.609  V    
O23  	Si1  	1_0_0_0   	1_0_0_0   	1.609  V    
O23  	Si7  	1_0_0_0   	7_-1_0_0  	1.61   V    
O24  	Si15 	1_0_0_0   	1_0_0_0   	1.611  V    
O24  	Si14 	1_0_0_0   	26_0_-1_0 	1.609  V    
O25  	Si13 	1_0_0_0   	1_0_0_0   	1.61   V    
O25  	Si18 	1_0_0_0   	1_0_0_0   	1.611  V    
O26  	Si14 	1_0_0_0   	1_0_0_0   	1.61   V    
O26  	Si10 	1_0_0_0   	1_0_0_0   	1.61   V    
O27  	Si12 	1_0_0_0   	1_0_0_0   	1.61   V    
O27  	Si4  	1_0_0_0   	29_0_1_0  	1.609  V    
O28  	Si18 	1_0_0_0   	1_0_0_0   	1.61   V    
O28  	Si16 	1_0_0_0   	1_0_0_0   	1.61   V    
O29  	Si16 	1_0_0_0   	1_0_0_0   	1.61   V    
O29  	Si4  	1_0_0_0   	29_0_1_0  	1.611  V    
O30  	Si14 	1_0_0_0   	1_0_0_0   	1.611  V    
O30  	Si17 	1_0_0_0   	26_0_0_0  	1.61   V    
O31  	Si10 	1_0_0_0   	1_0_0_0   	1.609  V    
O31  	Si12 	1_0_0_0   	1_0_0_0   	1.609  V    
O32  	Si6  	1_0_0_0   	1_0_0_0   	1.611  V    
O32  	Si15 	1_0_0_0   	1_0_0_0   	1.611  V    
O33  	Si10 	1_0_0_0   	1_0_0_0   	1.61   V    
O33  	Si18 	1_0_0_0   	1_0_0_0   	1.611  V    
O34  	Si13 	1_0_0_0   	1_0_0_0   	1.61   V    
O34  	Si20 	1_0_0_0   	12_0_0_0  	1.612  V    
O35  	Si17 	1_0_0_0   	1_0_0_0   	1.61   V    
O35  	Si21 	1_0_0_0   	6_0_0_0   	1.61   V    
Si3  	O22  	1_0_0_0   	3_1_0_0   	1.609  V    
Si4  	O11  	1_0_0_0   	29_0_1_0  	1.611  V    
Si4  	O27  	1_0_0_0   	29_0_1_0  	1.609  V    
Si4  	O29  	1_0_0_0   	29_0_1_0  	1.611  V    
Si6  	O37  	1_0_0_0   	1_0_0_0   	1.61   V    
Si7  	O10  	1_0_0_0   	4_-1_1_-1 	1.61   V    
Si7  	O23  	1_0_0_0   	7_-1_0_0  	1.61   V    
Si11 	O4   	1_0_0_0   	4_-1_1_-1 	1.61   V    
Si12 	O36  	1_0_0_0   	1_0_0_0   	1.609  V    
Si12 	O19  	1_0_0_0   	26_0_0_0  	1.609  V    
Si14 	O38  	1_0_0_0   	1_0_0_0   	1.61   V    
Si14 	O24  	1_0_0_0   	26_0_0_0  	1.609  V    
Si15 	O40  	1_0_0_0   	1_0_0_0   	1.611  V    
Si16 	O42  	1_0_0_0   	1_0_0_0   	1.61   V    
Si17 	O43  	1_0_0_0   	1_0_0_0   	1.61   V    
Si17 	O30  	1_0_0_0   	26_0_-1_0 	1.61   V    
Si17 	O41  	1_0_0_0   	12_0_0_0  	1.61   V    
Si18 	O39  	1_0_0_0   	1_0_0_0   	1.611  V    
ZA1  	ZA16 	1_0_0_0   	1_0_0_0   	3.108  V    
ZA1  	ZA18 	1_0_0_0   	4_-1_1_-1 	1.974  V    
ZA6  	ZA16 	1_0_0_0   	3_1_0_0   	2.681  V    
ZA6  	ZA8  	1_0_0_0   	18_0_1_0  	5.061  V    
ZA16 	ZA6  	1_0_0_0   	4_-1_1_-1 	2.681  V    
ZA16 	ZA16 	1_0_0_0   	8_1_1_0   	4.486  V    
O36  	Si12 	1_0_0_0   	14_0_0_0  	1.609  V    
O37  	Si6  	1_0_0_0   	14_0_0_0  	1.61   V    
O38  	Si14 	1_0_0_0   	14_0_0_0  	1.61   V    
O39  	Si18 	1_0_0_0   	14_0_0_0  	1.611  V    
O40  	Si15 	1_0_0_0   	14_0_0_0  	1.611  V    
O41  	Si17 	1_0_0_0   	27_-1_0_0 	1.61   V    
O41  	Si17 	1_0_0_0   	24_0_0_0  	1.61   V    
O42  	Si16 	1_0_0_0   	14_0_0_0  	1.61   V    
O43  	Si17 	1_0_0_0   	14_0_0_0  	1.61   V    
ZA5  	ZA8  	1_0_0_0   	21_0_0_1  	5.366  V    
ZA5  	ZA17 	1_0_0_0   	3_0_0_0   	2.141  V    
ZA8  	ZA5  	1_0_0_0   	21_0_-1_1 	5.366  V    
ZA8  	ZA6  	1_0_0_0   	18_0_1_0  	5.061  V    
ZA8  	ZA6  	1_0_0_0   	29_0_1_0  	5.061  V    
ZA8  	ZA10 	1_0_0_0   	20_0_0_0  	4.127  V    
ZA13 	ZA19 	1_0_0_0   	18_0_1_0  	2.417  V    
ZA19 	ZA13 	1_0_0_0   	18_0_1_0  	2.417  V    
Si19 	O1   	1_0_0_0   	32_-1_0_-1	1.611  V    
Si19 	O1   	1_0_0_0   	26_0_-1_0 	1.611  V    
Si19 	O20  	1_0_0_0   	32_-1_0_-1	1.61   V    
Si19 	O20  	1_0_0_0   	26_0_-1_0 	1.61   V    
Si20 	O12  	1_0_0_0   	32_-1_0_-1	1.61   V    
Si20 	O12  	1_0_0_0   	26_0_-1_0 	1.61   V    
Si20 	O34  	1_0_0_0   	27_-1_0_0 	1.612  V    
Si20 	O34  	1_0_0_0   	30_0_-1_-1	1.612  V    
Si21 	O16  	1_0_0_0   	6_0_0_0   	1.61   V    
Si21 	O16  	1_0_0_0   	19_0_0_-1 	1.61   V    
Si21 	O35  	1_0_0_0   	6_0_0_0   	1.61   V    
Si21 	O35  	1_0_0_0   	19_0_0_-1 	1.61   V    
ZA18 	ZA1  	1_0_0_0   	3_1_0_0   	1.974  V    
ZA18 	ZA1  	1_0_0_0   	7_-1_0_0  	1.974  V    
ZA10 	ZA12 	1_0_0_0   	1_0_0_0   	5.2    V    
ZA10 	ZA8  	1_0_0_0   	15_0_0_-1 	4.127  V    
ZA12 	ZA10 	1_0_0_0   	8_0_0_1   	5.2    V    
ZA12 	ZA10 	1_0_0_0   	14_0_0_0  	5.2    V    
ZA12 	ZA10 	1_0_0_0   	23_0_0_1  	5.2    V    
ZA17 	ZA5  	1_0_0_0   	4_-1_0_-1 	2.141  V    
ZA17 	ZA5  	1_0_0_0   	8_1_0_1   	2.141  V    
