data_JZT-NT
_audit_creation_method             	Write2Cif_ToposPro  
_symmetry_space_group_name_H-M     	C2/C                
_symmetry_Int_Tables_number        	15                  
_symmetry_cell_setting             	monoclinic system   
_cell_length_a                     	21.4468             
_cell_length_b                     	21.3498             
_cell_length_c                     	14.5285             
_cell_angle_alpha                  	90.0                
_cell_angle_beta                   	108.87              
_cell_angle_gamma                  	90.0                
loop_
_symmetry_equiv_pos_as_xyz
x,y,z
-x,y,-z+1/2
-x,-y,-z
x,-y,z+1/2
x+1/2,y+1/2,z
-x+1/2,y+1/2,-z+1/2
-x+1/2,-y+1/2,-z
x+1/2,-y+1/2,z+1/2
loop_
_atom_site_label
_atom_site_type_symbol
_atom_site_fract_x
_atom_site_fract_y
_atom_site_fract_z
O1        	O         	0.20287   	0.28622   	0.65347   
O2        	O         	0.10076   	0.20791   	0.61751   
O3        	O         	0.23698   	0.06509   	0.58905   
O4        	O         	0.37418   	0.48529   	0.51931   
O5        	O         	0.29382   	0.36916   	0.74438   
O6        	O         	0.35777   	0.45796   	0.6872    
O7        	O         	0.2424    	0.37104   	0.55445   
O8        	O         	0.032     	0.13048   	0.68688   
O9        	O         	0.43526   	0.22036   	0.71377   
O10       	O         	0.31837   	0.47575   	0.83932   
O11       	O         	0.12767   	0.08738   	0.62798   
O12       	O         	0.46665   	0.42481   	0.65426   
O13       	O         	0.01828   	0.12874   	0.50052   
O14       	O         	0.05643   	0.04347   	0.82171   
O15       	O         	0.32598   	0.15676   	0.62688   
O16       	O         	0.37923   	0.227     	0.52481   
O17       	O         	0.49598   	0.30724   	0.83851   
O18       	O         	0.32238   	0.27962   	0.64062   
O19       	O         	0.19984   	0.18169   	0.5578    
O20       	O         	0.41492   	0.39711   	0.85037   
Si1       	Si        	0.41035   	0.47769   	0.63452   
Si2       	Si        	0.26545   	0.32625   	0.64874   
Si3       	Si        	0.1679    	0.03558   	0.58949   
Si4       	Si        	0.15568   	0.23793   	0.57703   
Si5       	Si        	0.06968   	0.13854   	0.60813   
Si6       	Si        	0.49074   	0.37512   	0.88367   
Si7       	Si        	0.34639   	0.42524   	0.78034   
Si8       	Si        	0.25599   	0.13232   	0.55551   
Si9       	Si        	0.36568   	0.22088   	0.62728   
ZA1       	ZA        	0.38533   	0.35634   	0.60097   
ZA4       	ZA        	0.2769    	0.19771   	0.90467   
ZA7       	ZA        	0.0643    	0.58375   	0.4314    
Si10      	Si        	0.5       	0.26386   	0.75      
ZA6       	ZA        	0.5       	0.42584   	0.75      
Si11      	Si        	0.0       	0.08674   	0.75      
ZA2       	ZA        	0.5       	0.5       	0.5       
ZA3       	ZA        	0.25      	0.25      	0.5       
ZA5       	ZA        	0.0       	0.5       	0.5       
ZA8       	ZA        	0.25      	0.75      	0.5       
loop_
_topos_bond_atom_site_label_1
_topos_bond_atom_site_label_2
_topos_bond_site_symmetry_1
_topos_bond_site_symmetry_2
_topos_bond_distance
_topos_bond_type
O1   	Si4  	1_0_0_0   	1_0_0_0   	1.61   V    
O1   	Si2  	1_0_0_0   	1_0_0_0   	1.611  V    
O2   	Si4  	1_0_0_0   	1_0_0_0   	1.61   V    
O2   	Si5  	1_0_0_0   	1_0_0_0   	1.612  V    
O3   	Si8  	1_0_0_0   	1_0_0_0   	1.61   V    
O3   	Si3  	1_0_0_0   	1_0_0_0   	1.612  V    
O4   	Si1  	1_0_0_0   	1_0_0_0   	1.609  V    
O4   	Si3  	1_0_0_0   	7_0_0_1   	1.609  V    
O5   	Si2  	1_0_0_0   	1_0_0_0   	1.61   V    
O5   	Si7  	1_0_0_0   	1_0_0_0   	1.611  V    
O6   	Si7  	1_0_0_0   	1_0_0_0   	1.61   V    
O6   	Si1  	1_0_0_0   	1_0_0_0   	1.61   V    
O7   	Si2  	1_0_0_0   	1_0_0_0   	1.612  V    
O7   	Si8  	1_0_0_0   	7_0_0_1   	1.611  V    
O8   	Si5  	1_0_0_0   	1_0_0_0   	1.609  V    
O8   	Si11 	1_0_0_0   	1_0_0_0   	1.61   V    
O9   	Si9  	1_0_0_0   	1_0_0_0   	1.61   V    
O9   	Si10 	1_0_0_0   	1_0_0_0   	1.611  V    
O10  	Si7  	1_0_0_0   	1_0_0_0   	1.61   V    
O10  	Si3  	1_0_0_0   	6_0_0_1   	1.61   V    
O11  	Si5  	1_0_0_0   	1_0_0_0   	1.61   V    
O11  	Si3  	1_0_0_0   	1_0_0_0   	1.61   V    
O12  	Si1  	1_0_0_0   	1_0_0_0   	1.61   V    
O12  	Si6  	1_0_0_0   	2_1_0_1   	1.609  V    
O13  	Si5  	1_0_0_0   	1_0_0_0   	1.609  V    
O13  	Si6  	1_0_0_0   	8_-1_0_-1 	1.609  V    
O14  	Si11 	1_0_0_0   	1_0_0_0   	1.609  V    
O14  	Si1  	1_0_0_0   	6_0_-1_1  	1.61   V    
O15  	Si8  	1_0_0_0   	1_0_0_0   	1.611  V    
O15  	Si9  	1_0_0_0   	1_0_0_0   	1.611  V    
O16  	Si9  	1_0_0_0   	1_0_0_0   	1.612  V    
O16  	Si4  	1_0_0_0   	7_0_0_1   	1.611  V    
O17  	Si10 	1_0_0_0   	1_0_0_0   	1.61   V    
O17  	Si6  	1_0_0_0   	1_0_0_0   	1.61   V    
O18  	Si2  	1_0_0_0   	1_0_0_0   	1.609  V    
O18  	Si9  	1_0_0_0   	1_0_0_0   	1.609  V    
O19  	Si4  	1_0_0_0   	1_0_0_0   	1.609  V    
O19  	Si8  	1_0_0_0   	1_0_0_0   	1.609  V    
O20  	Si7  	1_0_0_0   	1_0_0_0   	1.609  V    
O20  	Si6  	1_0_0_0   	1_0_0_0   	1.609  V    
Si1  	O14  	1_0_0_0   	6_0_0_1   	1.61   V    
Si3  	O4   	1_0_0_0   	7_0_0_1   	1.609  V    
Si3  	O10  	1_0_0_0   	6_0_-1_1  	1.61   V    
Si4  	O16  	1_0_0_0   	7_0_0_1   	1.611  V    
Si6  	O12  	1_0_0_0   	2_1_0_1   	1.609  V    
Si6  	O13  	1_0_0_0   	8_0_0_0   	1.609  V    
Si8  	O7   	1_0_0_0   	7_0_0_1   	1.611  V    
ZA4  	ZA7  	1_0_0_0   	6_0_-1_1  	4.236  V    
ZA4  	ZA8  	1_0_0_0   	4_0_1_0   	2.004  V    
ZA7  	ZA5  	1_0_0_0   	1_0_0_0   	2.642  V    
ZA7  	ZA4  	1_0_0_0   	6_0_0_1   	4.236  V    
ZA7  	ZA7  	1_0_0_0   	2_0_0_0   	5.098  V    
Si10 	O9   	1_0_0_0   	2_1_0_1   	1.611  V    
Si10 	O17  	1_0_0_0   	2_1_0_1   	1.61   V    
Si11 	O8   	1_0_0_0   	2_0_0_1   	1.61   V    
Si11 	O14  	1_0_0_0   	2_0_0_1   	1.609  V    
ZA5  	ZA7  	1_0_0_0   	3_0_1_1   	2.642  V    
ZA8  	ZA4  	1_0_0_0   	4_0_1_-1  	2.004  V    
ZA8  	ZA4  	1_0_0_0   	6_0_0_1   	2.004  V    
