data_OKO-NT
_audit_creation_method             	Write2Cif_ToposPro  
_symmetry_space_group_name_H-M     	C2/M                
_symmetry_Int_Tables_number        	12                  
_symmetry_cell_setting             	monoclinic system   
_cell_length_a                     	24.0638             
_cell_length_b                     	13.8332             
_cell_length_c                     	12.3516             
_cell_angle_alpha                  	90.0                
_cell_angle_beta                   	109.1282            
_cell_angle_gamma                  	90.0                
loop_
_symmetry_equiv_pos_as_xyz
x,y,z
-x,y,-z
-x,-y,-z
x,-y,z
x+1/2,y+1/2,z
-x+1/2,y+1/2,-z
-x+1/2,-y+1/2,-z
x+1/2,-y+1/2,z
loop_
_atom_site_label
_atom_site_type_symbol
_atom_site_fract_x
_atom_site_fract_y
_atom_site_fract_z
O1        	O         	0.32386   	0.903     	0.22624   
O2        	O         	0.34575   	0.71973   	0.20513   
O3        	O         	0.32387   	0.78171   	0.38829   
O4        	O         	0.23821   	0.7729    	0.19189   
O5        	O         	0.31918   	0.90386   	0.54843   
O6        	O         	0.365     	0.73203   	0.60392   
O7        	O         	0.34296   	0.77813   	0.00193   
O8        	O         	0.30452   	0.90517   	0.83622   
O9        	O         	0.37239   	0.76747   	0.81758   
O10       	O         	0.3279    	0.59528   	0.03545   
O11       	O         	0.35198   	0.59456   	0.73975   
O12       	O         	0.04359   	0.83654   	0.22201   
O13       	O         	0.93177   	0.83139   	0.1237    
Si1       	Si        	0.30734   	0.79428   	0.25172   
Si2       	Si        	0.3139    	0.79182   	0.51052   
Si3       	Si        	0.31918   	0.79274   	0.86499   
Si4       	Si        	0.36279   	0.69137   	0.09354   
Si5       	Si        	0.38772   	0.69128   	0.73301   
Si6       	Si        	0.99052   	0.88611   	0.12165   
ZA2       	ZA        	0.2323    	0.85128   	0.33208   
ZA4       	ZA        	0.24872   	0.666667  	0.01145   
O14       	O         	0.20882   	0.0       	0.81527   
O15       	O         	0.25214   	0.0       	0.64319   
O16       	O         	0.98688   	0.0       	0.14525   
Si7       	Si        	0.26765   	0.0       	0.78013   
ZA1       	ZA        	0.85613   	0.0       	0.89836   
ZA6       	ZA        	0.5194    	0.0       	0.84097   
O17       	O         	0.22932   	0.5       	0.96418   
O18       	O         	0.27122   	0.5       	0.79454   
O19       	O         	0.27152   	0.5       	0.57947   
Si8       	Si        	0.21154   	0.5       	0.82652   
Si9       	Si        	0.31105   	0.5       	0.71249   
Si10      	Si        	0.21946   	0.5       	0.45809   
Si11      	Si        	0.29462   	0.5       	0.0567    
O20       	O         	0.25      	0.75      	0.5       
O21       	O         	0.0       	0.13071   	0.0       
ZA3       	ZA        	0.5       	0.5       	0.5       
ZA5       	ZA        	0.5       	0.0       	0.5       
ZA7       	ZA        	0.5       	0.0       	-0.0      
loop_
_topos_bond_atom_site_label_1
_topos_bond_atom_site_label_2
_topos_bond_site_symmetry_1
_topos_bond_site_symmetry_2
_topos_bond_distance
_topos_bond_type
O1   	Si1  	1_0_0_0   	1_0_0_0   	1.613  V    
O1   	Si8  	1_0_0_0   	6_0_0_1   	1.608  V    
O2   	Si4  	1_0_0_0   	1_0_0_0   	1.61   V    
O2   	Si1  	1_0_0_0   	1_0_0_0   	1.612  V    
O3   	Si2  	1_0_0_0   	1_0_0_0   	1.611  V    
O3   	Si1  	1_0_0_0   	1_0_0_0   	1.611  V    
O4   	Si1  	1_0_0_0   	1_0_0_0   	1.611  V    
O4   	Si3  	1_0_0_0   	7_0_1_1   	1.609  V    
O5   	Si2  	1_0_0_0   	1_0_0_0   	1.612  V    
O5   	Si10 	1_0_0_0   	6_0_0_1   	1.61   V    
O6   	Si5  	1_0_0_0   	1_0_0_0   	1.609  V    
O6   	Si2  	1_0_0_0   	1_0_0_0   	1.612  V    
O7   	Si4  	1_0_0_0   	1_0_0_0   	1.611  V    
O7   	Si3  	1_0_0_0   	1_0_0_-1  	1.611  V    
O8   	Si3  	1_0_0_0   	1_0_0_0   	1.609  V    
O8   	Si7  	1_0_0_0   	1_0_1_0   	1.608  V    
O9   	Si5  	1_0_0_0   	1_0_0_0   	1.61   V    
O9   	Si3  	1_0_0_0   	1_0_0_0   	1.611  V    
O10  	Si11 	1_0_0_0   	1_0_0_0   	1.608  V    
O10  	Si4  	1_0_0_0   	1_0_0_0   	1.61   V    
O11  	Si9  	1_0_0_0   	1_0_0_0   	1.605  V    
O11  	Si5  	1_0_0_0   	1_0_0_0   	1.607  V    
O12  	Si5  	1_0_0_0   	7_0_1_1   	1.608  V    
O12  	Si6  	1_0_0_0   	1_-1_0_0  	1.613  V    
O13  	Si6  	1_0_0_0   	1_0_0_0   	1.611  V    
O13  	Si4  	1_0_0_0   	8_0_1_0   	1.609  V    
Si2  	O20  	1_0_0_0   	1_0_0_0   	1.608  V    
Si3  	O4   	1_0_0_0   	7_0_1_1   	1.609  V    
Si3  	O7   	1_0_0_0   	1_0_0_1   	1.611  V    
Si4  	O13  	1_0_0_0   	8_-1_1_0  	1.609  V    
Si5  	O12  	1_0_0_0   	7_0_1_1   	1.608  V    
Si6  	O12  	1_0_0_0   	1_1_0_0   	1.613  V    
Si6  	O16  	1_0_0_0   	1_0_1_0   	1.61   V    
Si6  	O21  	1_0_0_0   	3_1_1_0   	1.609  V    
ZA4  	ZA4  	1_0_0_0   	7_0_1_0   	2.326  V    
O14  	Si7  	1_0_0_0   	1_0_0_0   	1.611  V    
O14  	Si11 	1_0_0_0   	6_0_-1_1  	1.61   V    
O15  	Si7  	1_0_0_0   	1_0_0_0   	1.608  V    
O15  	Si10 	1_0_0_0   	6_0_-1_1  	1.61   V    
O16  	Si6  	1_0_0_0   	1_0_-1_0  	1.61   V    
O16  	Si6  	1_0_0_0   	4_0_1_0   	1.61   V    
Si7  	O8   	1_0_0_0   	1_0_-1_0  	1.608  V    
Si7  	O8   	1_0_0_0   	4_0_1_0   	1.608  V    
ZA6  	ZA5  	1_0_0_0   	1_0_0_0   	4.082  V    
ZA6  	ZA7  	1_0_0_0   	1_0_0_1   	2.163  V    
O17  	Si8  	1_0_0_0   	1_0_0_0   	1.612  V    
O17  	Si11 	1_0_0_0   	1_0_0_1   	1.612  V    
O18  	Si9  	1_0_0_0   	1_0_0_0   	1.607  V    
O18  	Si8  	1_0_0_0   	1_0_0_0   	1.609  V    
O19  	Si9  	1_0_0_0   	1_0_0_0   	1.606  V    
O19  	Si10 	1_0_0_0   	1_0_0_0   	1.608  V    
Si8  	O1   	1_0_0_0   	6_0_-1_1  	1.608  V    
Si8  	O1   	1_0_0_0   	7_0_1_1   	1.608  V    
Si9  	O11  	1_0_0_0   	4_0_1_0   	1.605  V    
Si10 	O5   	1_0_0_0   	6_0_-1_1  	1.61   V    
Si10 	O5   	1_0_0_0   	7_0_1_1   	1.61   V    
Si10 	O15  	1_0_0_0   	6_0_0_1   	1.61   V    
Si11 	O10  	1_0_0_0   	4_0_1_0   	1.608  V    
Si11 	O14  	1_0_0_0   	6_0_0_1   	1.61   V    
Si11 	O17  	1_0_0_0   	1_0_0_-1  	1.612  V    
O20  	Si2  	1_0_0_0   	7_0_1_1   	1.608  V    
O21  	Si6  	1_0_0_0   	3_1_1_0   	1.609  V    
O21  	Si6  	1_0_0_0   	4_-1_1_0  	1.609  V    
ZA3  	ZA5  	1_0_0_0   	1_0_0_0   	6.917  V    
ZA3  	ZA5  	1_0_0_0   	1_0_1_0   	6.917  V    
ZA5  	ZA3  	1_0_0_0   	1_0_-1_0  	6.917  V    
ZA5  	ZA6  	1_0_0_0   	2_1_0_1   	4.082  V    
ZA7  	ZA6  	1_0_0_0   	1_0_0_-1  	2.163  V    
ZA7  	ZA6  	1_0_0_0   	2_1_0_1   	2.163  V    
