data_PTF-PPT1
_audit_creation_method             	Write2Cif_ToposPro  
_symmetry_space_group_name_H-M     	C2/M                
_symmetry_Int_Tables_number        	12                  
_symmetry_cell_setting             	monoclinic system   
_cell_length_a                     	21.2822             
_cell_length_b                     	22.3738             
_cell_length_c                     	12.6796             
_cell_angle_alpha                  	90.0                
_cell_angle_beta                   	124.234             
_cell_angle_gamma                  	90.0                
loop_
_symmetry_equiv_pos_as_xyz
x,y,z
-x,y,-z
-x,-y,-z
x,-y,z
x+1/2,y+1/2,z
-x+1/2,y+1/2,-z
-x+1/2,-y+1/2,-z
x+1/2,-y+1/2,z
loop_
_atom_site_label
_atom_site_type_symbol
_atom_site_fract_x
_atom_site_fract_y
_atom_site_fract_z
O1        	O         	0.12043   	0.08489   	0.12446   
O2        	O         	0.26582   	0.07382   	0.30734   
O3        	O         	0.28449   	0.08624   	0.12064   
O4        	O         	0.13922   	0.07523   	0.93748   
O5        	O         	0.17085   	0.11265   	0.36116   
O6        	O         	0.0791    	0.20346   	0.25016   
O7        	O         	0.00896   	0.11282   	0.89051   
O8        	O         	0.39624   	0.11214   	0.35656   
O9        	O         	0.41888   	0.20286   	0.25122   
O10       	O         	0.33772   	0.19684   	0.00029   
O11       	O         	0.23559   	0.11192   	0.88423   
O12       	O         	0.0695    	0.21275   	0.88193   
O13       	O         	0.22618   	0.21729   	0.36006   
O14       	O         	0.17152   	0.20066   	0.50001   
O15       	O         	0.24742   	0.19567   	0.74926   
O16       	O         	0.3548    	0.2201    	0.37587   
O17       	O         	0.19355   	0.22219   	0.88577   
Si1       	Si        	0.07937   	0.06807   	0.97617   
Si2       	Si        	0.18065   	0.06778   	0.272     
Si3       	Si        	0.3256    	0.06803   	0.26824   
Si4       	Si        	0.22447   	0.06825   	0.97354   
Si5       	Si        	0.16229   	0.1838    	0.36859   
Si6       	Si        	0.00066   	0.18444   	0.12017   
Si7       	Si        	0.41747   	0.1821    	0.37151   
Si8       	Si        	0.37364   	0.24107   	0.12117   
Si9       	Si        	0.25347   	0.1814    	0.87911   
Si10      	Si        	0.2094    	0.23995   	0.62823   
O18       	O         	0.0       	0.20879   	0.0       
O19       	O         	0.35502   	0.0       	0.28861   
O20       	O         	0.16632   	0.0       	0.29625   
O21       	O         	0.23851   	0.0       	0.95156   
O22       	O         	0.04982   	0.0       	0.95276   
ZA1       	ZA        	0.20252   	0.0       	0.12249   
ZA3       	ZA        	0.05716   	0.0       	0.10677   
O23       	O         	0.5       	0.19346   	0.5       
ZA2       	ZA        	0.0       	0.0       	0.5       
ZA4       	ZA        	0.0       	0.5       	0.0       
loop_
_topos_bond_atom_site_label_1
_topos_bond_atom_site_label_2
_topos_bond_site_symmetry_1
_topos_bond_site_symmetry_2
_topos_bond_distance
_topos_bond_type
O1   	Si2  	1_0_0_0   	1_0_0_0   	1.61   V    
O1   	Si1  	1_0_0_0   	1_0_0_-1  	1.61   V    
O2   	Si2  	1_0_0_0   	1_0_0_0   	1.61   V    
O2   	Si3  	1_0_0_0   	1_0_0_0   	1.61   V    
O3   	Si3  	1_0_0_0   	1_0_0_0   	1.61   V    
O3   	Si4  	1_0_0_0   	1_0_0_-1  	1.61   V    
O4   	Si4  	1_0_0_0   	1_0_0_0   	1.61   V    
O4   	Si1  	1_0_0_0   	1_0_0_0   	1.61   V    
O5   	Si2  	1_0_0_0   	1_0_0_0   	1.611  V    
O5   	Si5  	1_0_0_0   	1_0_0_0   	1.611  V    
O6   	Si6  	1_0_0_0   	1_0_0_0   	1.609  V    
O6   	Si5  	1_0_0_0   	1_0_0_0   	1.61   V    
O7   	Si1  	1_0_0_0   	1_0_0_0   	1.611  V    
O7   	Si6  	1_0_0_0   	2_0_0_1   	1.611  V    
O8   	Si7  	1_0_0_0   	1_0_0_0   	1.611  V    
O8   	Si3  	1_0_0_0   	1_0_0_0   	1.611  V    
O9   	Si8  	1_0_0_0   	1_0_0_0   	1.61   V    
O9   	Si7  	1_0_0_0   	1_0_0_0   	1.611  V    
O10  	Si8  	1_0_0_0   	1_0_0_0   	1.611  V    
O10  	Si9  	1_0_0_0   	1_0_0_-1  	1.611  V    
O11  	Si9  	1_0_0_0   	1_0_0_0   	1.61   V    
O11  	Si4  	1_0_0_0   	1_0_0_0   	1.611  V    
O12  	Si6  	1_0_0_0   	2_0_0_1   	1.608  V    
O12  	Si8  	1_0_0_0   	7_0_0_1   	1.608  V    
O13  	Si5  	1_0_0_0   	1_0_0_0   	1.609  V    
O13  	Si10 	1_0_0_0   	7_0_0_1   	1.609  V    
O14  	Si5  	1_0_0_0   	1_0_0_0   	1.609  V    
O14  	Si10 	1_0_0_0   	1_0_0_0   	1.61   V    
O15  	Si9  	1_0_0_0   	1_0_0_0   	1.61   V    
O15  	Si10 	1_0_0_0   	1_0_0_0   	1.611  V    
O16  	Si7  	1_0_0_0   	1_0_0_0   	1.609  V    
O16  	Si10 	1_0_0_0   	7_0_0_1   	1.609  V    
O17  	Si9  	1_0_0_0   	1_0_0_0   	1.609  V    
O17  	Si8  	1_0_0_0   	7_0_0_1   	1.608  V    
Si1  	O1   	1_0_0_0   	1_0_0_1   	1.61   V    
Si1  	O22  	1_0_0_0   	1_0_0_0   	1.61   V    
Si2  	O20  	1_0_0_0   	1_0_0_0   	1.61   V    
Si3  	O19  	1_0_0_0   	1_0_0_0   	1.61   V    
Si4  	O21  	1_0_0_0   	1_0_0_0   	1.61   V    
Si4  	O3   	1_0_0_0   	1_0_0_1   	1.61   V    
Si6  	O7   	1_0_0_0   	2_0_0_1   	1.611  V    
Si6  	O12  	1_0_0_0   	2_0_0_1   	1.608  V    
Si6  	O18  	1_0_0_0   	1_0_0_0   	1.611  V    
Si7  	O23  	1_0_0_0   	1_0_0_0   	1.608  V    
Si8  	O12  	1_0_0_0   	7_0_0_1   	1.608  V    
Si8  	O17  	1_0_0_0   	7_0_0_1   	1.608  V    
Si9  	O10  	1_0_0_0   	1_0_0_1   	1.611  V    
Si10 	O13  	1_0_0_0   	7_0_0_1   	1.609  V    
Si10 	O16  	1_0_0_0   	7_0_0_1   	1.609  V    
O18  	Si6  	1_0_0_0   	2_0_0_0   	1.611  V    
O19  	Si3  	1_0_0_0   	4_0_0_0   	1.61   V    
O20  	Si2  	1_0_0_0   	4_0_0_0   	1.61   V    
O21  	Si4  	1_0_0_0   	4_0_0_0   	1.61   V    
O22  	Si1  	1_0_0_0   	4_0_0_0   	1.61   V    
ZA1  	ZA3  	1_0_0_0   	1_0_0_0   	2.986  V    
ZA3  	ZA2  	1_0_0_0   	1_0_0_0   	5.759  V    
ZA3  	ZA3  	1_0_0_0   	2_0_0_0   	2.416  V    
O23  	Si7  	1_0_0_0   	2_1_0_1   	1.608  V    
ZA2  	ZA3  	1_0_0_0   	2_0_0_1   	5.759  V    
ZA2  	ZA4  	1_0_0_0   	5_0_-1_1  	8.805  V    
ZA2  	ZA4  	1_0_0_0   	5_-1_-1_0 	8.805  V    
ZA4  	ZA2  	1_0_0_0   	5_-1_0_-1 	8.805  V    
ZA4  	ZA2  	1_0_0_0   	5_0_0_0   	8.805  V    
ZA4  	ZA4  	1_0_0_0   	1_0_0_1   	12.68  V    
ZA4  	ZA4  	1_0_0_0   	1_0_0_-1  	12.68  V    
