data_SEW-PPT1
_audit_creation_method             	Write2Cif_ToposPro  
_symmetry_space_group_name_H-M     	PMMN                
_symmetry_Int_Tables_number        	59                  
_symmetry_cell_setting             	orthorhombic system 
_cell_length_a                     	23.7289             
_cell_length_b                     	11.2932             
_cell_length_c                     	14.4719             
_cell_angle_alpha                  	90.0                
_cell_angle_beta                   	90.0                
_cell_angle_gamma                  	90.0                
loop_
_symmetry_equiv_pos_as_xyz
x,y,z
-x,-y,z
-x+1/2,y+1/2,-z
x+1/2,-y+1/2,-z
-x+1/2,-y+1/2,-z
x+1/2,y+1/2,-z
x,-y,z
-x,y,z
loop_
_atom_site_label
_atom_site_type_symbol
_atom_site_fract_x
_atom_site_fract_y
_atom_site_fract_z
O1        	O         	0.05543   	0.19555   	0.1719    
O2        	O         	0.07512   	0.61591   	0.38167   
O3        	O         	0.16571   	0.19911   	0.19258   
O4        	O         	0.2496    	0.27613   	0.08893   
O5        	O         	0.16225   	0.17335   	0.01231   
O6        	O         	0.15055   	0.38462   	0.08941   
O7        	O         	0.1008    	0.16474   	0.33689   
O8        	O         	0.55545   	0.28341   	0.13842   
O9        	O         	0.34135   	0.35883   	0.16791   
O10       	O         	0.40894   	0.31987   	0.3088    
O11       	O         	0.0867    	0.21961   	0.51119   
Si1       	Si        	0.18233   	0.25904   	0.09525   
Si2       	Si        	0.10781   	0.13998   	0.22798   
Si3       	Si        	0.30196   	0.3658    	0.07741   
Si4       	Si        	0.4056    	0.36507   	0.20338   
Si5       	Si        	0.06572   	0.24691   	0.40747   
Si6       	Si        	0.43232   	0.36756   	0.40646   
ZA7       	ZA        	0.08737   	0.25668   	0.02772   
O12       	O         	0.10752   	0.5       	0.2334    
O13       	O         	0.27977   	0.5       	0.06614   
O14       	O         	0.42731   	0.5       	0.19816   
O15       	O         	0.40936   	0.5       	0.4243    
Si7       	Si        	0.06427   	0.5       	0.31924   
Si8       	Si        	0.11636   	0.5       	0.12307   
ZA1       	ZA        	0.21369   	0.5       	0.61073   
O16       	O         	0.0       	0.16675   	0.01471   
O17       	O         	0.0       	0.21353   	0.39858   
Si9       	Si        	0.0       	0.14051   	0.124     
ZA6       	ZA        	0.0       	0.32132   	0.18479   
O18       	O         	0.5       	0.11632   	0.05359   
O19       	O         	0.5       	0.37194   	0.40252   
Si10      	Si        	0.5       	0.25521   	0.07828   
O20       	O         	0.55533   	0.0       	0.92534   
O21       	O         	0.11041   	0.0       	0.20831   
ZA2       	ZA        	0.0971    	0.0       	0.01469   
O22       	O         	0.0       	0.0       	0.14223   
ZA3       	ZA        	0.0       	0.0       	0.36885   
O23       	O         	0.0       	0.5       	0.28324   
ZA5       	ZA        	0.0       	0.5       	0.62841   
Si11      	Si        	0.5       	0.0       	0.98945   
ZA4       	ZA        	0.5       	0.5       	0.19566   
loop_
_topos_bond_atom_site_label_1
_topos_bond_atom_site_label_2
_topos_bond_site_symmetry_1
_topos_bond_site_symmetry_2
_topos_bond_distance
_topos_bond_type
O1   	Si9  	1_0_0_0   	1_0_0_0   	1.611  V    
O1   	Si2  	1_0_0_0   	1_0_0_0   	1.612  V    
O2   	Si7  	1_0_0_0   	1_0_0_0   	1.611  V    
O2   	Si5  	1_0_0_0   	7_0_1_0   	1.609  V    
O3   	Si2  	1_0_0_0   	1_0_0_0   	1.611  V    
O3   	Si1  	1_0_0_0   	1_0_0_0   	1.612  V    
O4   	Si1  	1_0_0_0   	1_0_0_0   	1.61   V    
O4   	Si3  	1_0_0_0   	1_0_0_0   	1.612  V    
O5   	Si1  	1_0_0_0   	1_0_0_0   	1.614  V    
O5   	Si3  	1_0_0_0   	5_0_0_0   	1.613  V    
O6   	Si1  	1_0_0_0   	1_0_0_0   	1.608  V    
O6   	Si8  	1_0_0_0   	1_0_0_0   	1.61   V    
O7   	Si2  	1_0_0_0   	1_0_0_0   	1.609  V    
O7   	Si5  	1_0_0_0   	1_0_0_0   	1.612  V    
O8   	Si10 	1_0_0_0   	1_0_0_0   	1.609  V    
O8   	Si4  	1_0_0_0   	8_1_0_0   	1.609  V    
O9   	Si4  	1_0_0_0   	1_0_0_0   	1.61   V    
O9   	Si3  	1_0_0_0   	1_0_0_0   	1.611  V    
O10  	Si4  	1_0_0_0   	1_0_0_0   	1.611  V    
O10  	Si6  	1_0_0_0   	1_0_0_0   	1.611  V    
O11  	Si5  	1_0_0_0   	1_0_0_0   	1.611  V    
O11  	Si6  	1_0_0_0   	5_0_0_1   	1.61   V    
Si2  	O21  	1_0_0_0   	1_0_0_0   	1.607  V    
Si3  	O5   	1_0_0_0   	5_0_0_0   	1.613  V    
Si3  	O13  	1_0_0_0   	1_0_0_0   	1.613  V    
Si4  	O14  	1_0_0_0   	1_0_0_0   	1.61   V    
Si4  	O8   	1_0_0_0   	8_1_0_0   	1.609  V    
Si5  	O17  	1_0_0_0   	1_0_0_0   	1.61   V    
Si5  	O2   	1_0_0_0   	7_0_1_0   	1.609  V    
Si6  	O15  	1_0_0_0   	1_0_0_0   	1.613  V    
Si6  	O11  	1_0_0_0   	5_0_0_1   	1.61   V    
Si6  	O19  	1_0_0_0   	1_0_0_0   	1.608  V    
ZA7  	ZA2  	1_0_0_0   	1_0_0_0   	2.914  V    
O12  	Si8  	1_0_0_0   	1_0_0_0   	1.61   V    
O12  	Si7  	1_0_0_0   	1_0_0_0   	1.611  V    
O13  	Si3  	1_0_0_0   	7_0_1_0   	1.613  V    
O14  	Si4  	1_0_0_0   	7_0_1_0   	1.61   V    
O15  	Si6  	1_0_0_0   	7_0_1_0   	1.613  V    
Si7  	O2   	1_0_0_0   	7_0_1_0   	1.611  V    
Si7  	O23  	1_0_0_0   	1_0_0_0   	1.612  V    
Si8  	O6   	1_0_0_0   	7_0_1_0   	1.61   V    
Si8  	O20  	1_0_0_0   	4_-1_0_1  	1.609  V    
ZA1  	ZA5  	1_0_0_0   	1_0_0_0   	5.077  V    
ZA1  	ZA1  	1_0_0_0   	3_0_-1_1  	6.718  V    
ZA1  	ZA1  	1_0_0_0   	3_0_0_1   	6.718  V    
O16  	Si9  	1_0_0_0   	1_0_0_0   	1.609  V    
O16  	Si10 	1_0_0_0   	4_-1_0_0  	1.609  V    
O17  	Si5  	1_0_0_0   	8_0_0_0   	1.61   V    
Si9  	O1   	1_0_0_0   	8_0_0_0   	1.611  V    
Si9  	O22  	1_0_0_0   	1_0_0_0   	1.609  V    
O18  	Si10 	1_0_0_0   	1_0_0_0   	1.609  V    
O18  	Si11 	1_0_0_0   	1_0_0_-1  	1.608  V    
O19  	Si6  	1_0_0_0   	8_1_0_0   	1.608  V    
Si10 	O8   	1_0_0_0   	8_1_0_0   	1.609  V    
Si10 	O16  	1_0_0_0   	4_0_0_0   	1.609  V    
O20  	Si11 	1_0_0_0   	1_0_0_0   	1.608  V    
O20  	Si8  	1_0_0_0   	4_0_0_1   	1.609  V    
O21  	Si2  	1_0_0_0   	7_0_0_0   	1.607  V    
ZA2  	ZA7  	1_0_0_0   	7_0_0_0   	2.914  V    
O22  	Si9  	1_0_0_0   	2_0_0_0   	1.609  V    
O23  	Si7  	1_0_0_0   	2_0_1_0   	1.612  V    
ZA5  	ZA1  	1_0_0_0   	2_0_1_0   	5.077  V    
Si11 	O20  	1_0_0_0   	2_1_0_0   	1.608  V    
Si11 	O18  	1_0_0_0   	1_0_0_1   	1.608  V    
Si11 	O18  	1_0_0_0   	2_1_0_1   	1.608  V    
