data_SFG-PPT1
_audit_creation_method             	Write2Cif_ToposPro  
_symmetry_space_group_name_H-M     	PMMA                
_symmetry_Int_Tables_number        	51                  
_symmetry_cell_setting             	orthorhombic system 
_cell_length_a                     	25.532              
_cell_length_b                     	12.575              
_cell_length_c                     	13.066              
_cell_angle_alpha                  	90.0                
_cell_angle_beta                   	90.0                
_cell_angle_gamma                  	90.0                
loop_
_symmetry_equiv_pos_as_xyz
x,y,z
-x+1/2,-y,z
-x,y,-z
x+1/2,-y,-z
-x,-y,-z
x+1/2,y,-z
x,-y,z
-x+1/2,y,z
loop_
_atom_site_label
_atom_site_type_symbol
_atom_site_fract_x
_atom_site_fract_y
_atom_site_fract_z
O1        	O         	0.6603    	0.1048    	0.4309    
O2        	O         	0.5719    	0.1905    	0.3704    
O3        	O         	0.6579    	0.3037    	0.3707    
O4        	O         	0.6452    	0.1466    	0.2367    
O5        	O         	0.6982    	0.2006    	0.0751    
O6        	O         	0.5989    	0.1456    	0.057     
O7        	O         	0.576     	0.1892    	0.8655    
O8        	O         	0.5247    	0.1715    	0.6921    
O9        	O         	0.6217    	0.1047    	0.7027    
O10       	O         	0.6016    	0.309     	0.7082    
O11       	O         	0.6729    	0.3435    	0.5674    
O12       	O         	0.6986    	0.3441    	0.763     
Si1       	Si        	0.6341    	0.1869    	0.3514    
Si2       	Si        	0.6529    	0.1226    	0.1167    
Si3       	Si        	0.5811    	0.1933    	0.7427    
Si4       	Si        	0.654     	0.3747    	0.681     
Si5       	Si        	0.5189    	0.1222    	0.383     
Si6       	Si        	0.688     	0.3777    	0.4524    
Si7       	Si        	0.5577    	0.1247    	0.9659    
ZA10      	ZA        	0.61319   	0.17212   	0.54916   
ZA12      	ZA        	0.66917   	0.17458   	0.86212   
O13       	O         	0.6694    	0.0       	0.101     
O14       	O         	0.6912    	0.0       	0.5923    
O15       	O         	0.6981    	0.0       	0.7913    
O16       	O         	0.5298    	0.0       	0.3531    
O17       	O         	0.5564    	0.0       	0.9386    
Si8       	Si        	0.6906    	0.0       	0.4691    
Si9       	Si        	0.6577    	0.0       	0.6967    
ZA1       	ZA        	0.64911   	0.0       	0.92185   
ZA2       	ZA        	0.53446   	0.0       	0.21351   
ZA6       	ZA        	0.42213   	0.0       	0.4646    
O18       	O         	0.6416    	0.5       	0.6868    
O19       	O         	0.6718    	0.5       	0.4341    
O20       	O         	0.75      	0.0       	0.4277    
Si10      	Si        	0.75      	0.0       	0.8608    
ZA8       	ZA        	0.75      	0.0       	0.20629   
O21       	O         	0.5       	0.1299    	0.5       
O22       	O         	0.75      	0.364     	0.4352    
O23       	O         	0.75      	0.3128    	0.936     
O24       	O         	0.75      	0.1046    	0.9313    
Si11      	Si        	0.75      	0.2069    	0.0052    
Si12      	Si        	0.75      	0.3744    	0.828     
ZA9       	ZA        	0.75      	0.18977   	0.63204   
ZA11      	ZA        	0.75      	0.1757    	0.30938   
O25       	O         	0.5       	0.1623    	0.0       
O26       	O         	0.75      	0.5       	0.851     
ZA3       	ZA        	0.75      	0.5       	0.61896   
ZA7       	ZA        	0.75      	0.5       	0.20927   
ZA4       	ZA        	0.5       	0.5       	0.0       
ZA5       	ZA        	0.5       	0.5       	0.5       
loop_
_topos_bond_atom_site_label_1
_topos_bond_atom_site_label_2
_topos_bond_site_symmetry_1
_topos_bond_site_symmetry_2
_topos_bond_distance
_topos_bond_type
O1   	Si8  	1_0_0_0   	1_0_0_0   	1.608  V    
O1   	Si1  	1_0_0_0   	1_0_0_0   	1.61   V    
O2   	Si1  	1_0_0_0   	1_0_0_0   	1.608  V    
O2   	Si5  	1_0_0_0   	1_0_0_0   	1.611  V    
O3   	Si1  	1_0_0_0   	1_0_0_0   	1.609  V    
O3   	Si6  	1_0_0_0   	1_0_0_0   	1.611  V    
O4   	Si1  	1_0_0_0   	1_0_0_0   	1.607  V    
O4   	Si2  	1_0_0_0   	1_0_0_0   	1.609  V    
O5   	Si11 	1_0_0_0   	1_0_0_0   	1.609  V    
O5   	Si2  	1_0_0_0   	1_0_0_0   	1.611  V    
O6   	Si2  	1_0_0_0   	1_0_0_0   	1.61   V    
O6   	Si7  	1_0_0_0   	1_0_0_-1  	1.61   V    
O7   	Si3  	1_0_0_0   	1_0_0_0   	1.611  V    
O7   	Si7  	1_0_0_0   	1_0_0_0   	1.612  V    
O8   	Si3  	1_0_0_0   	1_0_0_0   	1.608  V    
O8   	Si5  	1_0_0_0   	3_1_0_1   	1.608  V    
O9   	Si9  	1_0_0_0   	1_0_0_0   	1.608  V    
O9   	Si3  	1_0_0_0   	1_0_0_0   	1.609  V    
O10  	Si3  	1_0_0_0   	1_0_0_0   	1.611  V    
O10  	Si4  	1_0_0_0   	1_0_0_0   	1.612  V    
O11  	Si4  	1_0_0_0   	1_0_0_0   	1.609  V    
O11  	Si6  	1_0_0_0   	1_0_0_0   	1.61   V    
O12  	Si12 	1_0_0_0   	1_0_0_0   	1.609  V    
O12  	Si4  	1_0_0_0   	1_0_0_0   	1.61   V    
Si2  	O13  	1_0_0_0   	1_0_0_0   	1.611  V    
Si4  	O18  	1_0_0_0   	1_0_0_0   	1.609  V    
Si5  	O21  	1_0_0_0   	1_0_0_0   	1.606  V    
Si5  	O8   	1_0_0_0   	3_1_0_1   	1.608  V    
Si5  	O16  	1_0_0_0   	1_0_0_0   	1.61   V    
Si6  	O19  	1_0_0_0   	1_0_0_0   	1.61   V    
Si6  	O22  	1_0_0_0   	1_0_0_0   	1.608  V    
Si7  	O17  	1_0_0_0   	1_0_0_0   	1.609  V    
Si7  	O6   	1_0_0_0   	1_0_0_1   	1.61   V    
Si7  	O25  	1_0_0_0   	1_0_0_1   	1.61   V    
ZA10 	ZA6  	1_0_0_0   	3_1_0_1   	2.352  V    
ZA12 	ZA1  	1_0_0_0   	1_0_0_0   	2.386  V    
O13  	Si2  	1_0_0_0   	7_0_0_0   	1.611  V    
O14  	Si8  	1_0_0_0   	1_0_0_0   	1.61   V    
O14  	Si9  	1_0_0_0   	1_0_0_0   	1.61   V    
O15  	Si10 	1_0_0_0   	1_0_0_0   	1.606  V    
O15  	Si9  	1_0_0_0   	1_0_0_0   	1.61   V    
O16  	Si5  	1_0_0_0   	7_0_0_0   	1.61   V    
O17  	Si7  	1_0_0_0   	7_0_0_0   	1.609  V    
Si8  	O1   	1_0_0_0   	7_0_0_0   	1.608  V    
Si8  	O20  	1_0_0_0   	1_0_0_0   	1.61   V    
Si9  	O9   	1_0_0_0   	7_0_0_0   	1.608  V    
ZA1  	ZA12 	1_0_0_0   	7_0_0_0   	2.386  V    
ZA6  	ZA10 	1_0_0_0   	5_1_0_1   	2.352  V    
ZA6  	ZA10 	1_0_0_0   	3_1_0_1   	2.352  V    
O18  	Si4  	1_0_0_0   	7_0_1_0   	1.609  V    
O19  	Si6  	1_0_0_0   	7_0_1_0   	1.61   V    
O20  	Si8  	1_0_0_0   	2_1_0_0   	1.61   V    
Si10 	O15  	1_0_0_0   	2_1_0_0   	1.606  V    
Si10 	O24  	1_0_0_0   	1_0_0_0   	1.606  V    
Si10 	O24  	1_0_0_0   	2_1_0_0   	1.606  V    
ZA8  	ZA11 	1_0_0_0   	2_1_0_0   	2.588  V    
O21  	Si5  	1_0_0_0   	3_1_0_1   	1.606  V    
O22  	Si6  	1_0_0_0   	8_1_0_0   	1.608  V    
O23  	Si12 	1_0_0_0   	1_0_0_0   	1.61   V    
O23  	Si11 	1_0_0_0   	1_0_0_1   	1.61   V    
O24  	Si11 	1_0_0_0   	1_0_0_1   	1.608  V    
Si11 	O5   	1_0_0_0   	8_1_0_0   	1.609  V    
Si11 	O23  	1_0_0_0   	1_0_0_-1  	1.61   V    
Si11 	O24  	1_0_0_0   	1_0_0_-1  	1.608  V    
Si12 	O12  	1_0_0_0   	8_1_0_0   	1.609  V    
Si12 	O26  	1_0_0_0   	1_0_0_0   	1.608  V    
ZA11 	ZA7  	1_0_0_0   	1_0_0_0   	4.283  V    
O25  	Si7  	1_0_0_0   	1_0_0_-1  	1.61   V    
O25  	Si7  	1_0_0_0   	3_1_0_1   	1.61   V    
O26  	Si12 	1_0_0_0   	2_1_1_0   	1.608  V    
ZA7  	ZA4  	1_0_0_0   	1_0_0_0   	6.944  V    
ZA7  	ZA4  	1_0_0_0   	2_1_1_0   	6.944  V    
ZA7  	ZA11 	1_0_0_0   	2_1_1_0   	4.283  V    
ZA4  	ZA5  	1_0_0_0   	1_0_0_-1  	6.533  V    
ZA4  	ZA7  	1_0_0_0   	3_1_0_0   	6.944  V    
ZA5  	ZA4  	1_0_0_0   	1_0_0_1   	6.533  V    
