data_SFS-PPT1
_audit_creation_method             	Write2Cif_ToposPro  
_symmetry_space_group_name_H-M     	P21/M               
_symmetry_Int_Tables_number        	11                  
_symmetry_cell_setting             	monoclinic system   
_cell_length_a                     	14.013              
_cell_length_b                     	20.027              
_cell_length_c                     	12.488              
_cell_angle_alpha                  	90.0                
_cell_angle_beta                   	106.08              
_cell_angle_gamma                  	90.0                
loop_
_symmetry_equiv_pos_as_xyz
x,y,z
-x,y+1/2,-z
-x,-y,-z
x,-y+1/2,z
loop_
_atom_site_label
_atom_site_type_symbol
_atom_site_fract_x
_atom_site_fract_y
_atom_site_fract_z
O1        	O         	0.4759    	0.6411    	0.6868    
O2        	O         	0.3565    	0.1679    	0.5031    
O3        	O         	0.3234    	0.1614    	0.6993    
O4        	O         	0.1778    	0.144     	0.369     
O5        	O         	0.3029    	0.0453    	0.441     
O6        	O         	0.3342    	0.1316    	0.2952    
O7        	O         	0.1566    	0.1426    	0.752     
O8        	O         	0.3264    	0.1461    	0.9092    
O9        	O         	0.2856    	0.0442    	0.7732    
O10       	O         	0.4956    	0.1217    	0.6751    
O11       	O         	0.3236    	0.5755    	0.7134    
O12       	O         	0.4801    	0.509     	0.6934    
O13       	O         	0.365     	0.5727    	0.5205    
O14       	O         	0.3943    	0.1689    	0.1225    
O15       	O         	0.3498    	0.5448    	0.3109    
O16       	O         	0.4161    	0.5618    	0.1362    
O17       	O         	0.5179    	0.1301    	0.009     
O18       	O         	0.1096    	0.1715    	0.5396    
O19       	O         	0.9714    	0.1301    	0.6292    
O20       	O         	0.9875    	0.1302    	0.3506    
O21       	O         	0.156     	0.5521    	0.7613    
O22       	O         	0.3243    	0.5535    	0.9215    
O23       	O         	0.1882    	0.5593    	0.3787    
O24       	O         	0.9846    	0.5004    	0.6527    
O25       	O         	0.1038    	0.551     	0.5423    
Si1       	Si        	0.0841    	0.5602    	0.4099    
Si2       	Si        	0.2929    	0.1223    	0.4024    
Si3       	Si        	0.2727    	0.1236    	0.7832    
Si4       	Si        	0.4117    	0.5738    	0.6536    
Si5       	Si        	0.4169    	0.1732    	0.2558    
Si6       	Si        	0.4482    	0.5547    	0.2699    
Si7       	Si        	0.4203    	0.1734    	0.005     
Si8       	Si        	0.0714    	0.1736    	0.6499    
Si9       	Si        	0.0852    	0.1738    	0.4059    
Si10      	Si        	0.2726    	0.5342    	0.7935    
Si11      	Si        	0.3012    	0.533     	0.412     
Si12      	Si        	0.4304    	0.5615    	0.0127    
Si13      	Si        	0.0639    	0.5582    	0.6509    
Si14      	Si        	0.4067    	0.1748    	0.6353    
ZA1       	ZA        	0.20509   	0.44755   	0.5743    
ZA6       	ZA        	0.16403   	0.44717   	0.04964   
ZA7       	ZA        	0.45739   	0.05226   	0.47706   
ZA8       	ZA        	0.41697   	0.05231   	0.82509   
O26       	O         	0.4477    	0.25      	0.6613    
O27       	O         	0.4153    	0.25      	0.2934    
O28       	O         	0.4407    	0.25      	0.979     
O29       	O         	0.0503    	0.25      	0.6768    
O30       	O         	0.0663    	0.25      	0.3641    
ZA3       	ZA        	0.67769   	0.25      	0.22229   
ZA4       	ZA        	0.87058   	0.25      	0.95845   
ZA5       	ZA        	0.22578   	0.25      	0.57534   
ZA9       	ZA        	0.30042   	0.25      	0.42485   
ZA10      	ZA        	0.61784   	0.25      	0.52475   
ZA11      	ZA        	0.29278   	0.25      	0.76835   
O31       	O         	0.5       	0.5       	0.0       
ZA2       	ZA        	0.195     	0.75      	0.57604   
loop_
_topos_bond_atom_site_label_1
_topos_bond_atom_site_label_2
_topos_bond_site_symmetry_1
_topos_bond_site_symmetry_2
_topos_bond_distance
_topos_bond_type
O1   	Si4  	1_0_0_0   	1_0_0_0   	1.61   V    
O1   	Si5  	1_0_0_0   	2_1_0_1   	1.608  V    
O2   	Si2  	1_0_0_0   	1_0_0_0   	1.609  V    
O2   	Si14 	1_0_0_0   	1_0_0_0   	1.611  V    
O3   	Si3  	1_0_0_0   	1_0_0_0   	1.609  V    
O3   	Si14 	1_0_0_0   	1_0_0_0   	1.609  V    
O4   	Si9  	1_0_0_0   	1_0_0_0   	1.607  V    
O4   	Si2  	1_0_0_0   	1_0_0_0   	1.61   V    
O5   	Si2  	1_0_0_0   	1_0_0_0   	1.61   V    
O5   	Si11 	1_0_0_0   	4_0_0_0   	1.608  V    
O6   	Si2  	1_0_0_0   	1_0_0_0   	1.61   V    
O6   	Si5  	1_0_0_0   	1_0_0_0   	1.611  V    
O7   	Si3  	1_0_0_0   	1_0_0_0   	1.61   V    
O7   	Si8  	1_0_0_0   	1_0_0_0   	1.61   V    
O8   	Si3  	1_0_0_0   	1_0_0_0   	1.609  V    
O8   	Si7  	1_0_0_0   	1_0_0_1   	1.609  V    
O9   	Si3  	1_0_0_0   	1_0_0_0   	1.609  V    
O9   	Si10 	1_0_0_0   	4_0_0_0   	1.609  V    
O10  	Si14 	1_0_0_0   	1_0_0_0   	1.608  V    
O10  	Si6  	1_0_0_0   	2_1_-1_1  	1.61   V    
O11  	Si10 	1_0_0_0   	1_0_0_0   	1.61   V    
O11  	Si4  	1_0_0_0   	1_0_0_0   	1.61   V    
O12  	Si4  	1_0_0_0   	1_0_0_0   	1.608  V    
O12  	Si6  	1_0_0_0   	3_1_1_1   	1.61   V    
O13  	Si4  	1_0_0_0   	1_0_0_0   	1.609  V    
O13  	Si11 	1_0_0_0   	1_0_0_0   	1.611  V    
O14  	Si5  	1_0_0_0   	1_0_0_0   	1.608  V    
O14  	Si7  	1_0_0_0   	1_0_0_0   	1.609  V    
O15  	Si11 	1_0_0_0   	1_0_0_0   	1.609  V    
O15  	Si6  	1_0_0_0   	1_0_0_0   	1.611  V    
O16  	Si12 	1_0_0_0   	1_0_0_0   	1.609  V    
O16  	Si6  	1_0_0_0   	1_0_0_0   	1.611  V    
O17  	Si7  	1_0_0_0   	1_0_0_0   	1.608  V    
O17  	Si12 	1_0_0_0   	2_1_-1_0  	1.611  V    
O18  	Si9  	1_0_0_0   	1_0_0_0   	1.61   V    
O18  	Si8  	1_0_0_0   	1_0_0_0   	1.611  V    
O19  	Si8  	1_0_0_0   	1_1_0_0   	1.609  V    
O19  	Si1  	1_0_0_0   	2_1_-1_1  	1.61   V    
O20  	Si9  	1_0_0_0   	1_1_0_0   	1.609  V    
O20  	Si13 	1_0_0_0   	2_1_-1_1  	1.61   V    
O21  	Si13 	1_0_0_0   	1_0_0_0   	1.611  V    
O21  	Si10 	1_0_0_0   	1_0_0_0   	1.611  V    
O22  	Si10 	1_0_0_0   	1_0_0_0   	1.609  V    
O22  	Si12 	1_0_0_0   	1_0_0_1   	1.611  V    
O23  	Si11 	1_0_0_0   	1_0_0_0   	1.61   V    
O23  	Si1  	1_0_0_0   	1_0_0_0   	1.611  V    
O24  	Si13 	1_0_0_0   	1_1_0_0   	1.609  V    
O24  	Si1  	1_0_0_0   	3_1_1_1   	1.611  V    
O25  	Si1  	1_0_0_0   	1_0_0_0   	1.61   V    
O25  	Si13 	1_0_0_0   	1_0_0_0   	1.61   V    
Si1  	O19  	1_0_0_0   	2_1_0_1   	1.61   V    
Si1  	O24  	1_0_0_0   	3_1_1_1   	1.611  V    
Si5  	O1   	1_0_0_0   	2_1_-1_1  	1.608  V    
Si5  	O27  	1_0_0_0   	1_0_0_0   	1.61   V    
Si6  	O10  	1_0_0_0   	2_1_0_1   	1.61   V    
Si6  	O12  	1_0_0_0   	3_1_1_1   	1.61   V    
Si7  	O8   	1_0_0_0   	1_0_0_-1  	1.609  V    
Si7  	O28  	1_0_0_0   	1_0_0_-1  	1.61   V    
Si8  	O19  	1_0_0_0   	1_-1_0_0  	1.609  V    
Si8  	O29  	1_0_0_0   	1_0_0_0   	1.611  V    
Si9  	O30  	1_0_0_0   	1_0_0_0   	1.611  V    
Si9  	O20  	1_0_0_0   	1_-1_0_0  	1.609  V    
Si10 	O9   	1_0_0_0   	4_0_0_0   	1.609  V    
Si11 	O5   	1_0_0_0   	4_0_0_0   	1.608  V    
Si12 	O31  	1_0_0_0   	1_0_0_0   	1.606  V    
Si12 	O17  	1_0_0_0   	2_1_0_0   	1.611  V    
Si12 	O22  	1_0_0_0   	1_0_0_-1  	1.611  V    
Si13 	O20  	1_0_0_0   	2_1_0_1   	1.61   V    
Si13 	O24  	1_0_0_0   	1_-1_0_0  	1.609  V    
Si14 	O26  	1_0_0_0   	1_0_0_0   	1.613  V    
ZA6  	ZA4  	1_0_0_0   	1_-1_0_-1 	5.586  V    
ZA6  	ZA6  	1_0_0_0   	3_0_1_0   	4.898  V    
ZA7  	ZA7  	1_0_0_0   	3_1_0_1   	2.399  V    
O26  	Si14 	1_0_0_0   	4_0_0_0   	1.613  V    
O27  	Si5  	1_0_0_0   	4_0_0_0   	1.61   V    
O28  	Si7  	1_0_0_0   	1_0_0_1   	1.61   V    
O28  	Si7  	1_0_0_0   	4_0_0_1   	1.61   V    
O29  	Si8  	1_0_0_0   	4_0_0_0   	1.611  V    
O30  	Si9  	1_0_0_0   	4_0_0_0   	1.611  V    
ZA3  	ZA2  	1_0_0_0   	2_1_-1_1  	2.653  V    
ZA3  	ZA4  	1_0_0_0   	1_0_0_-1  	4.806  V    
ZA4  	ZA10 	1_0_0_0   	1_0_0_0   	5.59   V    
ZA4  	ZA3  	1_0_0_0   	1_0_0_1   	4.806  V    
ZA4  	ZA6  	1_0_0_0   	1_1_0_1   	5.586  V    
ZA4  	ZA6  	1_0_0_0   	4_1_0_1   	5.586  V    
ZA5  	ZA11 	1_0_0_0   	1_0_0_0   	2.332  V    
ZA5  	ZA9  	1_0_0_0   	1_0_0_0   	2.391  V    
ZA10 	ZA2  	1_0_0_0   	2_1_-1_1  	3.208  V    
O31  	Si12 	1_0_0_0   	3_1_1_0   	1.606  V    
ZA2  	ZA3  	1_0_0_0   	2_1_0_1   	2.653  V    
ZA2  	ZA10 	1_0_0_0   	2_1_0_1   	3.208  V    
