data_SOV-PPT1
_audit_creation_method             	Write2Cif_ToposPro  
_symmetry_space_group_name_H-M     	CMMM                
_symmetry_Int_Tables_number        	65                  
_symmetry_cell_setting             	orthorhombic system 
_cell_length_a                     	24.6308             
_cell_length_b                     	26.6513             
_cell_length_c                     	12.7267             
_cell_angle_alpha                  	90.0                
_cell_angle_beta                   	90.0                
_cell_angle_gamma                  	90.0                
loop_
_symmetry_equiv_pos_as_xyz
x,y,z
-x,-y,z
-x,y,-z
x,-y,-z
-x,-y,-z
x,y,-z
x,-y,z
-x,y,z
x+1/2,y+1/2,z
-x+1/2,-y+1/2,z
-x+1/2,y+1/2,-z
x+1/2,-y+1/2,-z
-x+1/2,-y+1/2,-z
x+1/2,y+1/2,-z
x+1/2,-y+1/2,z
-x+1/2,y+1/2,z
loop_
_atom_site_label
_atom_site_type_symbol
_atom_site_fract_x
_atom_site_fract_y
_atom_site_fract_z
O1        	O         	0.23728   	0.4359    	0.15953   
O2        	O         	0.13637   	0.40764   	0.19231   
O3        	O         	0.10165   	0.1467    	0.31406   
O4        	O         	0.16036   	0.0892    	0.19331   
O5        	O         	0.17585   	0.08651   	0.39715   
O6        	O         	0.08647   	0.04916   	0.31901   
O7        	O         	0.10144   	0.33505   	0.31452   
O8        	O         	0.15133   	0.41374   	0.39679   
O9        	O         	0.05327   	0.42225   	0.31875   
O10       	O         	0.08065   	0.24065   	0.36263   
Si1       	Si        	0.13103   	0.09288   	0.3061    
Si2       	Si        	0.20116   	0.0582    	0.11889   
Si3       	Si        	0.06141   	0.18336   	0.37757   
Si4       	Si        	0.06139   	0.29793   	0.37746   
Si5       	Si        	0.11102   	0.3947    	0.30569   
Si6       	Si        	0.17535   	0.4422    	0.12111   
O11       	O         	0.06331   	0.31269   	0.5       
O12       	O         	0.06361   	0.16846   	0.5       
O13       	O         	0.23765   	0.44228   	0.5       
Si7       	Si        	0.19704   	0.05727   	0.5       
Si8       	Si        	0.17234   	0.44273   	0.5       
O14       	O         	0.18381   	0.0       	0.12135   
Si9       	Si        	0.06523   	0.0       	0.38002   
ZA4       	ZA        	0.24664   	0.0       	0.31412   
O15       	O         	0.0       	0.30408   	0.33566   
O16       	O         	0.0       	0.17713   	0.33596   
Si10      	Si        	0.0       	0.43979   	0.38201   
O17       	O         	0.15731   	0.5       	0.13261   
ZA15      	ZA        	0.11468   	0.5       	0.3272    
O18       	O         	0.17042   	0.42535   	0.0       
O19       	O         	0.1968    	0.07855   	0.0       
O20       	O         	0.0       	0.0       	0.37862   
O21       	O         	0.08604   	0.0       	0.5       
O22       	O         	0.17615   	0.0       	0.5       
ZA12      	ZA        	0.13108   	0.0       	0.5       
O23       	O         	0.15145   	0.5       	0.5       
ZA11      	ZA        	0.92112   	0.5       	0.5       
O24       	O         	0.0       	0.41781   	0.5       
ZA5       	ZA        	0.0       	0.24064   	0.5       
ZA6       	ZA        	0.0       	0.08711   	0.5       
ZA9       	ZA        	0.0       	0.37796   	0.5       
O25       	O         	0.0       	0.5       	0.38858   
ZA1       	ZA        	0.26291   	0.0       	0.0       
ZA2       	ZA        	0.0       	0.0       	0.0       
ZA3       	ZA        	0.25      	0.25      	0.0       
ZA7       	ZA        	0.0       	0.25987   	0.0       
ZA13      	ZA        	0.0       	0.08361   	0.0       
ZA8       	ZA        	0.25      	0.25      	0.5       
ZA10      	ZA        	0.0       	0.5       	0.0       
ZA14      	ZA        	0.25      	0.25      	0.32585   
loop_
_topos_bond_atom_site_label_1
_topos_bond_atom_site_label_2
_topos_bond_site_symmetry_1
_topos_bond_site_symmetry_2
_topos_bond_distance
_topos_bond_type
O1   	Si6  	1_0_0_0   	1_0_0_0   	1.611  V    
O1   	Si2  	1_0_0_0   	10_0_0_0  	1.61   V    
O2   	Si5  	1_0_0_0   	1_0_0_0   	1.61   V    
O2   	Si6  	1_0_0_0   	1_0_0_0   	1.61   V    
O3   	Si3  	1_0_0_0   	1_0_0_0   	1.609  V    
O3   	Si1  	1_0_0_0   	1_0_0_0   	1.61   V    
O4   	Si2  	1_0_0_0   	1_0_0_0   	1.609  V    
O4   	Si1  	1_0_0_0   	1_0_0_0   	1.61   V    
O5   	Si1  	1_0_0_0   	1_0_0_0   	1.609  V    
O5   	Si7  	1_0_0_0   	1_0_0_0   	1.61   V    
O6   	Si1  	1_0_0_0   	1_0_0_0   	1.609  V    
O6   	Si9  	1_0_0_0   	1_0_0_0   	1.61   V    
O7   	Si4  	1_0_0_0   	1_0_0_0   	1.61   V    
O7   	Si5  	1_0_0_0   	1_0_0_0   	1.611  V    
O8   	Si5  	1_0_0_0   	1_0_0_0   	1.609  V    
O8   	Si8  	1_0_0_0   	1_0_0_0   	1.609  V    
O9   	Si10 	1_0_0_0   	1_0_0_0   	1.609  V    
O9   	Si5  	1_0_0_0   	1_0_0_0   	1.609  V    
O10  	Si4  	1_0_0_0   	1_0_0_0   	1.61   V    
O10  	Si3  	1_0_0_0   	1_0_0_0   	1.61   V    
Si2  	O1   	1_0_0_0   	10_0_0_0  	1.61   V    
Si2  	O14  	1_0_0_0   	1_0_0_0   	1.609  V    
Si2  	O19  	1_0_0_0   	1_0_0_0   	1.611  V    
Si3  	O12  	1_0_0_0   	1_0_0_0   	1.609  V    
Si3  	O16  	1_0_0_0   	1_0_0_0   	1.611  V    
Si4  	O11  	1_0_0_0   	1_0_0_0   	1.609  V    
Si4  	O15  	1_0_0_0   	1_0_0_0   	1.611  V    
Si6  	O17  	1_0_0_0   	1_0_0_0   	1.61   V    
Si6  	O18  	1_0_0_0   	1_0_0_0   	1.61   V    
O11  	Si4  	1_0_0_0   	6_0_0_1   	1.609  V    
O12  	Si3  	1_0_0_0   	6_0_0_1   	1.609  V    
O13  	Si8  	1_0_0_0   	1_0_0_0   	1.609  V    
O13  	Si7  	1_0_0_0   	10_0_0_0  	1.609  V    
Si7  	O5   	1_0_0_0   	6_0_0_1   	1.61   V    
Si7  	O22  	1_0_0_0   	1_0_0_0   	1.611  V    
Si7  	O13  	1_0_0_0   	10_0_0_0  	1.609  V    
Si8  	O8   	1_0_0_0   	6_0_0_1   	1.609  V    
Si8  	O23  	1_0_0_0   	1_0_0_0   	1.611  V    
O14  	Si2  	1_0_0_0   	7_0_0_0   	1.609  V    
Si9  	O6   	1_0_0_0   	7_0_0_0   	1.61   V    
Si9  	O20  	1_0_0_0   	1_0_0_0   	1.607  V    
Si9  	O21  	1_0_0_0   	1_0_0_0   	1.611  V    
O15  	Si4  	1_0_0_0   	8_0_0_0   	1.611  V    
O16  	Si3  	1_0_0_0   	8_0_0_0   	1.611  V    
Si10 	O9   	1_0_0_0   	8_0_0_0   	1.609  V    
Si10 	O24  	1_0_0_0   	1_0_0_0   	1.612  V    
Si10 	O25  	1_0_0_0   	1_0_0_0   	1.607  V    
O17  	Si6  	1_0_0_0   	7_0_1_0   	1.61   V    
ZA15 	ZA11 	1_0_0_0   	2_1_1_0   	2.369  V    
O18  	Si6  	1_0_0_0   	6_0_0_0   	1.61   V    
O19  	Si2  	1_0_0_0   	6_0_0_0   	1.611  V    
O20  	Si9  	1_0_0_0   	2_0_0_0   	1.607  V    
O21  	Si9  	1_0_0_0   	4_0_0_1   	1.611  V    
O22  	Si7  	1_0_0_0   	4_0_0_1   	1.611  V    
O23  	Si8  	1_0_0_0   	4_0_1_1   	1.611  V    
ZA11 	ZA15 	1_0_0_0   	2_1_1_0   	2.369  V    
ZA11 	ZA15 	1_0_0_0   	3_1_0_1   	2.369  V    
O24  	Si10 	1_0_0_0   	3_0_0_1   	1.612  V    
O25  	Si10 	1_0_0_0   	2_0_1_0   	1.607  V    
ZA2  	ZA13 	1_0_0_0   	2_0_0_0   	2.228  V    
ZA3  	ZA7  	1_0_0_0   	10_0_0_0  	6.163  V    
ZA3  	ZA14 	1_0_0_0   	6_0_0_0   	4.147  V    
ZA7  	ZA10 	1_0_0_0   	1_0_0_0   	6.4    V    
ZA7  	ZA13 	1_0_0_0   	1_0_0_0   	4.698  V    
ZA7  	ZA3  	1_0_0_0   	3_0_0_0   	6.163  V    
ZA8  	ZA14 	1_0_0_0   	6_0_0_1   	2.216  V    
ZA10 	ZA7  	1_0_0_0   	2_0_1_0   	6.4    V    
