data_STT-PPT1
_audit_creation_method             	Write2Cif_ToposPro  
_symmetry_space_group_name_H-M     	P21/C               
_symmetry_Int_Tables_number        	14                  
_symmetry_cell_setting             	monoclinic system   
_cell_length_a                     	13.573              
_cell_length_b                     	21.853              
_cell_length_c                     	16.5955             
_cell_angle_alpha                  	90.0                
_cell_angle_beta                   	129.9598            
_cell_angle_gamma                  	90.0                
loop_
_symmetry_equiv_pos_as_xyz
x,y,z
-x,y+1/2,-z+1/2
-x,-y,-z
x,-y+1/2,z+1/2
loop_
_atom_site_label
_atom_site_type_symbol
_atom_site_fract_x
_atom_site_fract_y
_atom_site_fract_z
O1        	O         	0.394     	0.5346    	0.8785    
O2        	O         	0.7245    	0.1588    	0.8968    
O3        	O         	0.3959    	0.4022    	0.632     
O4        	O         	0.8088    	0.238     	0.8325    
O5        	O         	0.9455    	0.1412    	0.9396    
O6        	O         	0.4179    	0.3291    	0.7696    
O7        	O         	0.3563    	0.4441    	0.7578    
O8        	O         	0.559     	0.2329    	0.8782    
O9        	O         	0.0375    	0.4177    	0.0632    
O10       	O         	0.5218    	0.4019    	0.5611    
O11       	O         	0.1906    	0.1319    	0.1056    
O12       	O         	0.5828    	0.4577    	0.946     
O13       	O         	0.2196    	0.5902    	0.8749    
O14       	O         	0.73      	0.1292    	0.7458    
O15       	O         	0.7956    	0.4334    	0.9778    
O16       	O         	0.0171    	0.0718    	0.0989    
O17       	O         	0.5049    	0.5358    	0.795     
O18       	O         	0.4962    	0.118     	0.8202    
O19       	O         	0.665     	0.1453    	0.0195    
O20       	O         	0.8554    	0.3519    	0.8993    
O21       	O         	0.0699    	0.0384    	0.9786    
O22       	O         	0.1778    	0.4488    	0.2623    
O23       	O         	0.15      	0.5246    	0.7128    
O24       	O         	0.7153    	0.5581    	0.8241    
O25       	O         	0.2423    	0.5602    	0.337     
O26       	O         	0.6223    	0.3056    	0.7908    
O27       	O         	0.6486    	0.3435    	0.9535    
O28       	O         	0.5216    	0.5006    	0.6524    
O29       	O         	0.3112    	0.4675    	0.4655    
O30       	O         	0.9321    	0.0013    	0.1716    
O31       	O         	0.7168    	0.329     	0.6974    
O32       	O         	0.877     	0.4693    	0.8779    
Si1       	Si        	0.6119    	0.1637    	0.9038    
Si2       	Si        	0.8013    	0.1669    	0.8537    
Si3       	Si        	0.258     	0.5699    	0.8049    
Si4       	Si        	0.4602    	0.4928    	0.8449    
Si5       	Si        	0.5621    	0.3025    	0.8484    
Si6       	Si        	0.7514    	0.3063    	0.8052    
Si7       	Si        	0.7021    	0.4112    	0.0002    
Si8       	Si        	0.0554    	0.0961    	0.0306    
Si9       	Si        	0.5611    	0.5527    	0.737     
Si10      	Si        	0.0074    	0.0026    	0.1265    
Si11      	Si        	0.2008    	0.4942    	0.3495    
Si12      	Si        	0.3403    	0.3859    	0.6907    
Si13      	Si        	0.8913    	0.418     	0.9546    
Si14      	Si        	0.6643    	0.3812    	0.6096    
Si15      	Si        	0.1551    	0.4597    	0.1554    
Si16      	Si        	0.4377    	0.4432    	0.5777    
ZA1       	ZA        	0.10839   	0.17263   	0.28243   
ZA2       	ZA        	0.63769   	0.4309    	0.77849   
ZA3       	ZA        	0.46732   	0.02852   	0.92469   
loop_
_topos_bond_atom_site_label_1
_topos_bond_atom_site_label_2
_topos_bond_site_symmetry_1
_topos_bond_site_symmetry_2
_topos_bond_distance
_topos_bond_type
O1   	Si4  	1_0_0_0   	1_0_0_0   	1.611  V    
O1   	Si3  	1_0_0_0   	1_0_0_0   	1.612  V    
O2   	Si2  	1_0_0_0   	1_0_0_0   	1.608  V    
O2   	Si1  	1_0_0_0   	1_0_0_0   	1.609  V    
O3   	Si12 	1_0_0_0   	1_0_0_0   	1.609  V    
O3   	Si16 	1_0_0_0   	1_0_0_0   	1.61   V    
O4   	Si6  	1_0_0_0   	1_0_0_0   	1.608  V    
O4   	Si2  	1_0_0_0   	1_0_0_0   	1.611  V    
O5   	Si2  	1_0_0_0   	1_0_0_0   	1.611  V    
O5   	Si8  	1_0_0_0   	1_1_0_1   	1.607  V    
O6   	Si5  	1_0_0_0   	1_0_0_0   	1.61   V    
O6   	Si12 	1_0_0_0   	1_0_0_0   	1.61   V    
O7   	Si4  	1_0_0_0   	1_0_0_0   	1.61   V    
O7   	Si12 	1_0_0_0   	1_0_0_0   	1.611  V    
O8   	Si5  	1_0_0_0   	1_0_0_0   	1.608  V    
O8   	Si1  	1_0_0_0   	1_0_0_0   	1.61   V    
O9   	Si15 	1_0_0_0   	1_0_0_0   	1.611  V    
O9   	Si13 	1_0_0_0   	1_-1_0_-1 	1.61   V    
O10  	Si14 	1_0_0_0   	1_0_0_0   	1.611  V    
O10  	Si16 	1_0_0_0   	1_0_0_0   	1.612  V    
O11  	Si8  	1_0_0_0   	1_0_0_0   	1.611  V    
O11  	Si12 	1_0_0_0   	4_0_0_-1  	1.609  V    
O12  	Si4  	1_0_0_0   	1_0_0_0   	1.608  V    
O12  	Si7  	1_0_0_0   	1_0_0_1   	1.61   V    
O13  	Si3  	1_0_0_0   	1_0_0_0   	1.611  V    
O13  	Si7  	1_0_0_0   	3_1_1_1   	1.612  V    
O14  	Si2  	1_0_0_0   	1_0_0_0   	1.611  V    
O14  	Si3  	1_0_0_0   	2_1_-1_1  	1.609  V    
O15  	Si13 	1_0_0_0   	1_0_0_0   	1.61   V    
O15  	Si7  	1_0_0_0   	1_0_0_1   	1.609  V    
O16  	Si10 	1_0_0_0   	1_0_0_0   	1.61   V    
O16  	Si8  	1_0_0_0   	1_0_0_0   	1.611  V    
O17  	Si4  	1_0_0_0   	1_0_0_0   	1.607  V    
O17  	Si9  	1_0_0_0   	1_0_0_0   	1.609  V    
O18  	Si1  	1_0_0_0   	1_0_0_0   	1.609  V    
O18  	Si9  	1_0_0_0   	2_1_-1_1  	1.611  V    
O19  	Si14 	1_0_0_0   	4_0_0_-1  	1.609  V    
O19  	Si1  	1_0_0_0   	1_0_0_-1  	1.609  V    
O20  	Si13 	1_0_0_0   	1_0_0_0   	1.61   V    
O20  	Si6  	1_0_0_0   	1_0_0_0   	1.61   V    
O21  	Si8  	1_0_0_0   	1_0_0_1   	1.61   V    
O21  	Si10 	1_0_0_0   	3_0_0_1   	1.611  V    
O22  	Si11 	1_0_0_0   	1_0_0_0   	1.611  V    
O22  	Si15 	1_0_0_0   	1_0_0_0   	1.611  V    
O23  	Si3  	1_0_0_0   	1_0_0_0   	1.608  V    
O23  	Si10 	1_0_0_0   	4_0_0_0   	1.609  V    
O24  	Si9  	1_0_0_0   	1_0_0_0   	1.612  V    
O24  	Si15 	1_0_0_0   	3_1_1_1   	1.61   V    
O25  	Si11 	1_0_0_0   	1_0_0_0   	1.61   V    
O25  	Si14 	1_0_0_0   	3_1_1_1   	1.609  V    
O26  	Si5  	1_0_0_0   	1_0_0_0   	1.609  V    
O26  	Si6  	1_0_0_0   	1_0_0_0   	1.609  V    
O27  	Si5  	1_0_0_0   	1_0_0_0   	1.61   V    
O27  	Si7  	1_0_0_0   	1_0_0_1   	1.611  V    
O28  	Si9  	1_0_0_0   	1_0_0_0   	1.609  V    
O28  	Si16 	1_0_0_0   	1_0_0_0   	1.61   V    
O29  	Si11 	1_0_0_0   	1_0_0_0   	1.608  V    
O29  	Si16 	1_0_0_0   	1_0_0_0   	1.61   V    
O30  	Si10 	1_0_0_0   	1_1_0_0   	1.609  V    
O30  	Si11 	1_0_0_0   	2_1_-1_0  	1.609  V    
O31  	Si6  	1_0_0_0   	1_0_0_0   	1.609  V    
O31  	Si14 	1_0_0_0   	1_0_0_0   	1.612  V    
O32  	Si13 	1_0_0_0   	1_0_0_0   	1.612  V    
O32  	Si15 	1_0_0_0   	3_1_1_1   	1.61   V    
Si1  	O19  	1_0_0_0   	1_0_0_1   	1.609  V    
Si3  	O14  	1_0_0_0   	2_1_0_1   	1.609  V    
Si7  	O12  	1_0_0_0   	1_0_0_-1  	1.61   V    
Si7  	O13  	1_0_0_0   	3_1_1_1   	1.612  V    
Si7  	O15  	1_0_0_0   	1_0_0_-1  	1.609  V    
Si7  	O27  	1_0_0_0   	1_0_0_-1  	1.611  V    
Si8  	O5   	1_0_0_0   	1_-1_0_-1 	1.607  V    
Si8  	O21  	1_0_0_0   	1_0_0_-1  	1.61   V    
Si9  	O18  	1_0_0_0   	2_1_0_1   	1.611  V    
Si10 	O21  	1_0_0_0   	3_0_0_1   	1.611  V    
Si10 	O23  	1_0_0_0   	4_0_0_-1  	1.609  V    
Si10 	O30  	1_0_0_0   	1_-1_0_0  	1.609  V    
Si11 	O30  	1_0_0_0   	2_1_0_0   	1.609  V    
Si12 	O11  	1_0_0_0   	4_0_0_0   	1.609  V    
Si13 	O9   	1_0_0_0   	1_1_0_1   	1.61   V    
Si14 	O19  	1_0_0_0   	4_0_0_0   	1.609  V    
Si14 	O25  	1_0_0_0   	3_1_1_1   	1.609  V    
Si15 	O24  	1_0_0_0   	3_1_1_1   	1.61   V    
Si15 	O32  	1_0_0_0   	3_1_1_1   	1.61   V    
ZA1  	ZA1  	1_0_0_0   	4_0_0_0   	8.96   V    
ZA1  	ZA1  	1_0_0_0   	4_0_0_-1  	8.96   V    
ZA1  	ZA1  	1_0_0_0   	4_1_0_0   	10.947 V    
ZA1  	ZA1  	1_0_0_0   	4_-1_0_-1 	10.947 V    
ZA3  	ZA3  	1_0_0_0   	3_1_0_2   	2.396  V    
