data_SVR-PPT1
_audit_creation_method             	Write2Cif_ToposPro  
_symmetry_space_group_name_H-M     	CC                  
_symmetry_Int_Tables_number        	9                   
_symmetry_cell_setting             	monoclinic system   
_cell_length_a                     	20.408              
_cell_length_b                     	13.304              
_cell_length_c                     	20.166              
_cell_angle_alpha                  	90.0                
_cell_angle_beta                   	102.333             
_cell_angle_gamma                  	90.0                
loop_
_symmetry_equiv_pos_as_xyz
x,y,z
x,-y,z+1/2
x+1/2,y+1/2,z
x+1/2,-y+1/2,z+1/2
loop_
_atom_site_label
_atom_site_type_symbol
_atom_site_fract_x
_atom_site_fract_y
_atom_site_fract_z
O1        	O         	0.1223    	0.3344    	0.0735    
O2        	O         	0.1067    	0.5296    	0.0823    
O3        	O         	0.0082    	0.4187    	0.0141    
O4        	O         	0.1169    	0.4501    	0.9665    
O5        	O         	0.2545    	0.3316    	0.1006    
O6        	O         	0.1863    	0.163     	0.0944    
O7        	O         	0.1899    	0.2892    	0.196     
O8        	O         	0.3812    	0.3652    	0.1017    
O9        	O         	0.2869    	0.4577    	0.0134    
O10       	O         	0.3093    	0.5063    	0.1431    
O11       	O         	0.4297    	0.1807    	0.1161    
O12       	O         	0.5065    	0.333333  	0.1652    
O13       	O         	0.4074    	0.2787    	0.2218    
O14       	O         	0.3075    	0.1091    	0.085     
O15       	O         	0.3988    	0.0148    	0.1743    
O16       	O         	0.4054    	0.0135    	0.0454    
O17       	O         	0.2046    	0.0457    	0.9941    
O18       	O         	0.2249    	0.9761    	0.1191    
O19       	O         	0.6313    	0.3637    	0.154     
O20       	O         	0.6067    	0.291     	0.2674    
O21       	O         	0.5853    	0.1791    	0.1585    
O22       	O         	0.7581    	0.3253    	0.2031    
O23       	O         	0.7021    	0.4858    	0.2434    
O24       	O         	0.8308    	0.1623    	0.2262    
O25       	O         	0.8895    	0.3397    	0.2323    
O26       	O         	0.825     	0.2869    	0.3267    
O27       	O         	0.7078    	0.1087    	0.1695    
O28       	O         	0.7802    	0.9962    	0.2642    
O29       	O         	0.6176    	0.0009    	0.2133    
O30       	O         	0.9226    	0.5016    	0.307     
O31       	O         	0.0074    	0.4227    	0.2394    
O32       	O         	0.8868    	0.5524    	0.4199    
O33       	O         	0.8816    	0.3495    	0.4493    
O34       	O         	0.7508    	0.3255    	0.4159    
O35       	O         	0.8299    	0.1679    	0.4315    
O36       	O         	0.6268    	0.3921    	0.3813    
O37       	O         	0.7279    	0.5123    	0.3761    
O38       	O         	0.5952    	0.2005    	0.3805    
O39       	O         	0.5049    	0.3328    	0.3233    
O40       	O         	0.7076    	0.0969    	0.3974    
O41       	O         	0.5932    	0.0146    	0.3357    
O42       	O         	0.8099    	0.9778    	0.3974    
O43       	O         	0.3807    	0.381     	0.3239    
O44       	O         	0.4196    	0.1922    	0.3411    
O45       	O         	0.2561    	0.3267    	0.3205    
O46       	O         	0.1845    	0.1626    	0.2945    
O47       	O         	0.1245    	0.3399    	0.2897    
O48       	O         	0.3067    	0.0921    	0.3027    
Si1       	Si        	0.0883    	0.4328    	0.0341    
Si2       	Si        	0.1883    	0.2796    	0.1162    
Si3       	Si        	0.3079    	0.4158    	0.09      
Si4       	Si        	0.4311    	0.2898    	0.1509    
Si5       	Si        	0.3857    	0.0792    	0.1053    
Si6       	Si        	0.2306    	0.0732    	0.0731    
Si7       	Si        	0.5823    	0.2922    	0.186     
Si8       	Si        	0.7042    	0.4137    	0.1798    
Si9       	Si        	0.8262    	0.2784    	0.2474    
Si10      	Si        	0.7824    	0.0682    	0.2005    
Si11      	Si        	0.6295    	0.0795    	0.1564    
Si12      	Si        	0.9296    	0.4446    	0.2384    
Si13      	Si        	0.8218    	0.2827    	0.4056    
Si14      	Si        	0.7028    	0.4212    	0.417     
Si15      	Si        	0.5833    	0.3038    	0.3382    
Si16      	Si        	0.6283    	0.0907    	0.3947    
Si17      	Si        	0.7835    	0.0711    	0.4352    
Si18      	Si        	0.4282    	0.2957    	0.3026    
Si19      	Si        	0.3067    	0.4206    	0.3264    
Si20      	Si        	0.1885    	0.2796    	0.2752    
Si21      	Si        	0.2304    	0.063     	0.3042    
Si22      	Si        	0.3839    	0.0845    	0.3424    
Si23      	Si        	0.0857    	0.4445    	0.2695    
ZA1       	ZA        	0.50676   	0.14045   	0.24844   
ZA2       	ZA        	0.50638   	0.53079   	0.25186   
ZA3       	ZA        	0.20387   	0.28132   	0.97823   
ZA4       	ZA        	0.2041    	0.65892   	0.01286   
ZA5       	ZA        	0.19716   	0.42757   	0.18354   
ZA6       	ZA        	0.96264   	0.49884   	0.9928    
ZA7       	ZA        	0.30884   	0.17756   	0.21089   
ZA8       	ZA        	0.70397   	0.17923   	0.29544   
loop_
_topos_bond_atom_site_label_1
_topos_bond_atom_site_label_2
_topos_bond_site_symmetry_1
_topos_bond_site_symmetry_2
_topos_bond_distance
_topos_bond_type
O1   	Si1  	1_0_0_0   	1_0_0_0   	1.61   V    
O1   	Si2  	1_0_0_0   	1_0_0_0   	1.61   V    
O2   	Si1  	1_0_0_0   	1_0_0_0   	1.609  V    
O2   	Si11 	1_0_0_0   	3_-1_0_0  	1.61   V    
O3   	Si1  	1_0_0_0   	1_0_0_0   	1.609  V    
O4   	Si16 	1_0_0_0   	4_-1_0_0  	1.609  V    
O4   	Si1  	1_0_0_0   	1_0_0_1   	1.61   V    
O5   	Si2  	1_0_0_0   	1_0_0_0   	1.608  V    
O5   	Si3  	1_0_0_0   	1_0_0_0   	1.609  V    
O6   	Si2  	1_0_0_0   	1_0_0_0   	1.61   V    
O6   	Si6  	1_0_0_0   	1_0_0_0   	1.611  V    
O7   	Si2  	1_0_0_0   	1_0_0_0   	1.608  V    
O7   	Si20 	1_0_0_0   	1_0_0_0   	1.609  V    
O8   	Si3  	1_0_0_0   	1_0_0_0   	1.611  V    
O8   	Si4  	1_0_0_0   	1_0_0_0   	1.611  V    
O9   	Si3  	1_0_0_0   	1_0_0_0   	1.612  V    
O9   	Si17 	1_0_0_0   	4_-1_0_-1 	1.61   V    
O10  	Si3  	1_0_0_0   	1_0_0_0   	1.607  V    
O10  	Si10 	1_0_0_0   	3_-1_0_0  	1.61   V    
O11  	Si4  	1_0_0_0   	1_0_0_0   	1.61   V    
O11  	Si5  	1_0_0_0   	1_0_0_0   	1.61   V    
O12  	Si7  	1_0_0_0   	1_0_0_0   	1.61   V    
O12  	Si4  	1_0_0_0   	1_0_0_0   	1.611  V    
O13  	Si18 	1_0_0_0   	1_0_0_0   	1.61   V    
O13  	Si4  	1_0_0_0   	1_0_0_0   	1.611  V    
O14  	Si6  	1_0_0_0   	1_0_0_0   	1.609  V    
O14  	Si5  	1_0_0_0   	1_0_0_0   	1.61   V    
O15  	Si5  	1_0_0_0   	1_0_0_0   	1.607  V    
O15  	Si12 	1_0_0_0   	3_-1_-1_0 	1.61   V    
O16  	Si5  	1_0_0_0   	1_0_0_0   	1.61   V    
O17  	Si14 	1_0_0_0   	4_-1_0_0  	1.609  V    
O17  	Si6  	1_0_0_0   	1_0_0_1   	1.61   V    
O18  	Si8  	1_0_0_0   	3_-1_0_0  	1.608  V    
O18  	Si6  	1_0_0_0   	1_0_1_0   	1.609  V    
O19  	Si8  	1_0_0_0   	1_0_0_0   	1.611  V    
O19  	Si7  	1_0_0_0   	1_0_0_0   	1.611  V    
O20  	Si15 	1_0_0_0   	1_0_0_0   	1.608  V    
O20  	Si7  	1_0_0_0   	1_0_0_0   	1.61   V    
O21  	Si11 	1_0_0_0   	1_0_0_0   	1.609  V    
O21  	Si7  	1_0_0_0   	1_0_0_0   	1.609  V    
O22  	Si9  	1_0_0_0   	1_0_0_0   	1.609  V    
O22  	Si8  	1_0_0_0   	1_0_0_0   	1.61   V    
O23  	Si8  	1_0_0_0   	1_0_0_0   	1.609  V    
O23  	Si21 	1_0_0_0   	3_0_0_0   	1.609  V    
O24  	Si10 	1_0_0_0   	1_0_0_0   	1.61   V    
O24  	Si9  	1_0_0_0   	1_0_0_0   	1.611  V    
O25  	Si12 	1_0_0_0   	1_0_0_0   	1.609  V    
O25  	Si9  	1_0_0_0   	1_0_0_0   	1.611  V    
O26  	Si13 	1_0_0_0   	1_0_0_0   	1.607  V    
O26  	Si9  	1_0_0_0   	1_0_0_0   	1.609  V    
O27  	Si10 	1_0_0_0   	1_0_0_0   	1.61   V    
O27  	Si11 	1_0_0_0   	1_0_0_0   	1.611  V    
O28  	Si19 	1_0_0_0   	3_0_0_0   	1.609  V    
O28  	Si10 	1_0_0_0   	1_0_1_0   	1.611  V    
O29  	Si11 	1_0_0_0   	1_0_0_0   	1.609  V    
O29  	Si23 	1_0_0_0   	3_0_-1_0  	1.608  V    
O30  	Si12 	1_0_0_0   	1_0_0_0   	1.61   V    
O30  	Si22 	1_0_0_0   	3_0_0_0   	1.61   V    
O31  	Si23 	1_0_0_0   	1_0_0_0   	1.61   V    
O31  	Si12 	1_0_0_0   	1_-1_0_0  	1.61   V    
O32  	Si22 	1_0_0_0   	3_0_0_0   	1.609  V    
O33  	Si13 	1_0_0_0   	1_0_0_0   	1.611  V    
O34  	Si14 	1_0_0_0   	1_0_0_0   	1.609  V    
O34  	Si13 	1_0_0_0   	1_0_0_0   	1.611  V    
O35  	Si17 	1_0_0_0   	1_0_0_0   	1.61   V    
O35  	Si13 	1_0_0_0   	1_0_0_0   	1.611  V    
O36  	Si15 	1_0_0_0   	1_0_0_0   	1.611  V    
O36  	Si14 	1_0_0_0   	1_0_0_0   	1.611  V    
O37  	Si14 	1_0_0_0   	1_0_0_0   	1.61   V    
O37  	Si21 	1_0_0_0   	3_0_0_0   	1.61   V    
O38  	Si15 	1_0_0_0   	1_0_0_0   	1.608  V    
O38  	Si16 	1_0_0_0   	1_0_0_0   	1.609  V    
O39  	Si18 	1_0_0_0   	1_0_0_0   	1.609  V    
O39  	Si15 	1_0_0_0   	1_0_0_0   	1.611  V    
O40  	Si16 	1_0_0_0   	1_0_0_0   	1.61   V    
O40  	Si17 	1_0_0_0   	1_0_0_0   	1.611  V    
O41  	Si16 	1_0_0_0   	1_0_0_0   	1.609  V    
O41  	Si23 	1_0_0_0   	3_0_-1_0  	1.609  V    
O42  	Si17 	1_0_0_0   	1_0_1_0   	1.609  V    
O42  	Si19 	1_0_0_0   	3_0_0_0   	1.61   V    
O43  	Si18 	1_0_0_0   	1_0_0_0   	1.609  V    
O43  	Si19 	1_0_0_0   	1_0_0_0   	1.61   V    
O44  	Si18 	1_0_0_0   	1_0_0_0   	1.609  V    
O44  	Si22 	1_0_0_0   	1_0_0_0   	1.61   V    
O45  	Si19 	1_0_0_0   	1_0_0_0   	1.609  V    
O45  	Si20 	1_0_0_0   	1_0_0_0   	1.61   V    
O46  	Si21 	1_0_0_0   	1_0_0_0   	1.61   V    
O46  	Si20 	1_0_0_0   	1_0_0_0   	1.611  V    
O47  	Si23 	1_0_0_0   	1_0_0_0   	1.61   V    
O47  	Si20 	1_0_0_0   	1_0_0_0   	1.612  V    
O48  	Si22 	1_0_0_0   	1_0_0_0   	1.611  V    
O48  	Si21 	1_0_0_0   	1_0_0_0   	1.611  V    
Si1  	O4   	1_0_0_0   	1_0_0_-1  	1.61   V    
Si6  	O17  	1_0_0_0   	1_0_0_-1  	1.61   V    
Si6  	O18  	1_0_0_0   	1_0_-1_0  	1.609  V    
Si8  	O18  	1_0_0_0   	3_0_-1_0  	1.608  V    
Si10 	O10  	1_0_0_0   	3_0_-1_0  	1.61   V    
Si10 	O28  	1_0_0_0   	1_0_-1_0  	1.611  V    
Si11 	O2   	1_0_0_0   	3_0_-1_0  	1.61   V    
Si12 	O15  	1_0_0_0   	3_0_0_0   	1.61   V    
Si12 	O31  	1_0_0_0   	1_1_0_0   	1.61   V    
Si14 	O17  	1_0_0_0   	4_0_0_-1  	1.609  V    
Si16 	O4   	1_0_0_0   	4_0_0_-1  	1.609  V    
Si17 	O9   	1_0_0_0   	4_0_0_0   	1.61   V    
Si17 	O42  	1_0_0_0   	1_0_-1_0  	1.609  V    
Si19 	O28  	1_0_0_0   	3_-1_-1_0 	1.609  V    
Si19 	O42  	1_0_0_0   	3_-1_-1_0 	1.61   V    
Si21 	O23  	1_0_0_0   	3_-1_-1_0 	1.609  V    
Si21 	O37  	1_0_0_0   	3_-1_-1_0 	1.61   V    
Si22 	O30  	1_0_0_0   	3_-1_-1_0 	1.61   V    
Si22 	O32  	1_0_0_0   	3_-1_-1_0 	1.609  V    
Si23 	O29  	1_0_0_0   	3_-1_0_0  	1.608  V    
Si23 	O41  	1_0_0_0   	3_-1_0_0  	1.609  V    
ZA2  	ZA6  	1_0_0_0   	4_-1_1_-1 	8.088  V    
ZA2  	ZA6  	1_0_0_0   	3_-1_0_-1 	8.054  V    
ZA4  	ZA6  	1_0_0_0   	3_-1_0_-1 	7.026  V    
ZA4  	ZA6  	1_0_0_0   	1_-1_0_-1 	5.304  V    
ZA6  	ZA2  	1_0_0_0   	4_0_1_0   	8.088  V    
ZA6  	ZA2  	1_0_0_0   	3_0_-1_1  	8.054  V    
ZA6  	ZA4  	1_0_0_0   	3_0_-1_1  	7.026  V    
ZA6  	ZA4  	1_0_0_0   	1_1_0_1   	5.304  V    
ZA6  	ZA6  	1_0_0_0   	1_0_-1_0  	13.304 V    
ZA6  	ZA6  	1_0_0_0   	1_0_1_0   	13.304 V    
