data_TUN-PPT1
_audit_creation_method             	Write2Cif_ToposPro  
_symmetry_space_group_name_H-M     	C2/M                
_symmetry_Int_Tables_number        	12                  
_symmetry_cell_setting             	monoclinic system   
_cell_length_a                     	27.845              
_cell_length_b                     	20.015              
_cell_length_c                     	19.596              
_cell_angle_alpha                  	90.0                
_cell_angle_beta                   	93.2                
_cell_angle_gamma                  	90.0                
loop_
_symmetry_equiv_pos_as_xyz
x,y,z
-x,y,-z
-x,-y,-z
x,-y,z
x+1/2,y+1/2,z
-x+1/2,y+1/2,-z
-x+1/2,-y+1/2,-z
x+1/2,-y+1/2,z
loop_
_atom_site_label
_atom_site_type_symbol
_atom_site_fract_x
_atom_site_fract_y
_atom_site_fract_z
O1        	O         	0.0447    	0.0912    	0.8988    
O2        	O         	0.0874    	0.2044    	0.9346    
O3        	O         	0.1355    	0.1103    	0.8747    
O4        	O         	0.1102    	0.0934    	0.0006    
O5        	O         	0.1222    	0.199     	0.6381    
O6        	O         	0.1272    	0.2458    	0.7628    
O7        	O         	0.1172    	0.1169    	0.7419    
O8        	O         	0.045     	0.1979    	0.7104    
O9        	O         	0.0493    	0.0942    	0.0989    
O10       	O         	0.1405    	0.1228    	0.1263    
O11       	O         	0.2026    	0.078     	0.7914    
O12       	O         	0.1399    	0.3006    	0.8834    
O13       	O         	0.116     	0.3068    	0.0111    
O14       	O         	0.0507    	0.3234    	0.9102    
O15       	O         	0.2072    	0.2066    	0.1736    
O16       	O         	0.2975    	0.1773    	0.2085    
O17       	O         	0.2372    	0.2024    	0.3031    
O18       	O         	0.2664    	0.2994    	0.225     
O19       	O         	0.0423    	0.3109    	0.0893    
O20       	O         	0.9955    	0.2512    	0.185     
O21       	O         	0.0038    	0.3824    	0.1854    
O22       	O         	0.1219    	0.2515    	0.133     
O23       	O         	0.1322    	0.1813    	0.2455    
O24       	O         	0.1189    	0.3826    	0.1211    
O25       	O         	0.0077    	0.1239    	0.2122    
O26       	O         	0.1216    	0.4027    	0.6434    
O27       	O         	0.0401    	0.417     	0.7039    
O28       	O         	0.1167    	0.376     	0.7753    
O29       	O         	0.1338    	0.4228    	0.2487    
O30       	O         	0.2071    	0.3914    	0.1756    
O31       	O         	0.2377    	0.396     	0.3045    
O32       	O         	0.1694    	0.2989    	0.4458    
O33       	O         	0.2206    	0.4082    	0.4345    
O34       	O         	0.1483    	0.406     	0.5157    
O35       	O         	0.132     	0.4023    	0.3813    
O36       	O         	0.0526    	0.3921    	0.3036    
O37       	O         	0.1201    	0.3017    	0.2946    
O38       	O         	0.1918    	0.1187    	0.6027    
O39       	O         	0.0492    	0.2142    	0.2936    
O40       	O         	0.2112    	0.379     	0.6169    
O41       	O         	0.284     	0.3128    	0.5702    
O42       	O         	0.2044    	0.2489    	0.5992    
O43       	O         	0.1442    	0.191     	0.5103    
O44       	O         	0.1266    	0.1996    	0.3774    
Si1       	Si        	0.1026    	0.19      	0.7133    
Si2       	Si        	0.9978    	0.3169    	0.1381    
Si3       	Si        	0.1505    	0.1902    	0.1695    
Si4       	Si        	0.0943    	0.125     	0.9273    
Si5       	Si        	0.1       	0.3129    	0.0885    
Si6       	Si        	0.0048    	0.0774    	0.1451    
Si7       	Si        	0.0977    	0.4236    	0.7133    
Si8       	Si        	0.1541    	0.4239    	0.1734    
Si9       	Si        	0.1036    	0.0776    	0.0801    
Si10      	Si        	0.2523    	0.3772    	0.2285    
Si11      	Si        	0.1457    	0.0764    	0.8025    
Si12      	Si        	0.1675    	0.3792    	0.4447    
Si13      	Si        	0.1098    	0.3797    	0.3073    
Si14      	Si        	0.2408    	0.0785    	0.6221    
Si15      	Si        	0.0088    	0.4227    	0.2564    
Si16      	Si        	0.0021    	0.1969    	0.2454    
Si17      	Si        	0.2402    	0.3094    	0.6204    
Si18      	Si        	0.1463    	0.3115    	0.803     
Si19      	Si        	0.1638    	0.2191    	0.44      
Si20      	Si        	0.1065    	0.224     	0.3029    
Si21      	Si        	0.164     	0.4218    	0.5943    
Si22      	Si        	0.0987    	0.2833    	0.9351    
Si23      	Si        	0.1658    	0.1896    	0.5884    
Si24      	Si        	0.2518    	0.2217    	0.2272    
ZA6       	ZA        	0.19246   	0.3042    	0.29592   
ZA8       	ZA        	0.07286   	0.19717   	0.83157   
ZA9       	ZA        	0.22124   	0.19799   	0.94508   
ZA10      	ZA        	0.19216   	0.19456   	0.71175   
ZA11      	ZA        	0.0787    	0.3084    	0.21019   
ZA14      	ZA        	0.2323    	0.3025    	0.49077   
O45       	O         	0.115     	0.0       	0.0952    
O46       	O         	0.1275    	0.0       	0.8022    
O47       	O         	0.0073    	0.0       	0.1676    
O48       	O         	0.2288    	0.0       	0.6261    
ZA15      	ZA        	0.0847    	0.0       	0.9162    
ZA16      	ZA        	0.26335   	0.0       	0.02407   
O49       	O         	0.1115    	0.5       	0.7313    
O50       	O         	0.1572    	0.5       	0.1475    
O51       	O         	0.0199    	0.5       	0.2408    
O52       	O         	0.1765    	0.5       	0.6027    
ZA3       	ZA        	0.08431   	0.5       	0.90269   
ZA5       	ZA        	0.23461   	0.5       	0.7506    
ZA17      	ZA        	0.25497   	0.5       	0.24432   
ZA1       	ZA        	0.0       	0.0       	0.0       
ZA2       	ZA        	0.0       	0.0       	0.5       
ZA4       	ZA        	0.0       	0.5       	0.5       
ZA7       	ZA        	0.0       	0.30307   	0.5       
ZA12      	ZA        	0.0       	0.5       	0.0       
ZA13      	ZA        	0.0       	0.20047   	0.0       
loop_
_topos_bond_atom_site_label_1
_topos_bond_atom_site_label_2
_topos_bond_site_symmetry_1
_topos_bond_site_symmetry_2
_topos_bond_distance
_topos_bond_type
O1   	Si4  	1_0_0_0   	1_0_0_0   	1.61   V    
O1   	Si6  	1_0_0_0   	2_0_0_1   	1.607  V    
O2   	Si4  	1_0_0_0   	1_0_0_0   	1.608  V    
O2   	Si22 	1_0_0_0   	1_0_0_0   	1.61   V    
O3   	Si11 	1_0_0_0   	1_0_0_0   	1.609  V    
O3   	Si4  	1_0_0_0   	1_0_0_0   	1.612  V    
O4   	Si9  	1_0_0_0   	1_0_0_0   	1.61   V    
O4   	Si4  	1_0_0_0   	1_0_0_-1  	1.609  V    
O5   	Si23 	1_0_0_0   	1_0_0_0   	1.609  V    
O5   	Si1  	1_0_0_0   	1_0_0_0   	1.61   V    
O6   	Si1  	1_0_0_0   	1_0_0_0   	1.607  V    
O6   	Si18 	1_0_0_0   	1_0_0_0   	1.608  V    
O7   	Si11 	1_0_0_0   	1_0_0_0   	1.61   V    
O7   	Si1  	1_0_0_0   	1_0_0_0   	1.611  V    
O8   	Si1  	1_0_0_0   	1_0_0_0   	1.609  V    
O8   	Si16 	1_0_0_0   	2_0_0_1   	1.612  V    
O9   	Si6  	1_0_0_0   	1_0_0_0   	1.61   V    
O9   	Si9  	1_0_0_0   	1_0_0_0   	1.611  V    
O10  	Si3  	1_0_0_0   	1_0_0_0   	1.609  V    
O10  	Si9  	1_0_0_0   	1_0_0_0   	1.609  V    
O11  	Si11 	1_0_0_0   	1_0_0_0   	1.612  V    
O11  	Si10 	1_0_0_0   	7_0_0_1   	1.609  V    
O12  	Si22 	1_0_0_0   	1_0_0_0   	1.61   V    
O12  	Si18 	1_0_0_0   	1_0_0_0   	1.61   V    
O13  	Si5  	1_0_0_0   	1_0_0_0   	1.609  V    
O13  	Si22 	1_0_0_0   	1_0_0_-1  	1.61   V    
O14  	Si22 	1_0_0_0   	1_0_0_0   	1.611  V    
O14  	Si2  	1_0_0_0   	2_1_0_1   	1.611  V    
O15  	Si24 	1_0_0_0   	1_0_0_0   	1.61   V    
O15  	Si3  	1_0_0_0   	1_0_0_0   	1.61   V    
O16  	Si24 	1_0_0_0   	1_0_0_0   	1.611  V    
O16  	Si18 	1_0_0_0   	7_0_0_1   	1.609  V    
O17  	Si24 	1_0_0_0   	1_0_0_0   	1.611  V    
O17  	Si17 	1_0_0_0   	7_0_0_1   	1.611  V    
O18  	Si10 	1_0_0_0   	1_0_0_0   	1.608  V    
O18  	Si24 	1_0_0_0   	1_0_0_0   	1.609  V    
O19  	Si5  	1_0_0_0   	1_0_0_0   	1.608  V    
O19  	Si2  	1_0_0_0   	1_-1_0_0  	1.611  V    
O20  	Si2  	1_0_0_0   	1_0_0_0   	1.608  V    
O20  	Si16 	1_0_0_0   	1_1_0_0   	1.61   V    
O21  	Si15 	1_0_0_0   	1_0_0_0   	1.608  V    
O21  	Si2  	1_0_0_0   	1_-1_0_0  	1.609  V    
O22  	Si5  	1_0_0_0   	1_0_0_0   	1.607  V    
O22  	Si3  	1_0_0_0   	1_0_0_0   	1.609  V    
O23  	Si3  	1_0_0_0   	1_0_0_0   	1.611  V    
O23  	Si20 	1_0_0_0   	1_0_0_0   	1.612  V    
O24  	Si8  	1_0_0_0   	1_0_0_0   	1.607  V    
O24  	Si5  	1_0_0_0   	1_0_0_0   	1.61   V    
O25  	Si6  	1_0_0_0   	1_0_0_0   	1.609  V    
O25  	Si16 	1_0_0_0   	1_0_0_0   	1.61   V    
O26  	Si21 	1_0_0_0   	1_0_0_0   	1.61   V    
O26  	Si7  	1_0_0_0   	1_0_0_0   	1.611  V    
O27  	Si7  	1_0_0_0   	1_0_0_0   	1.61   V    
O27  	Si15 	1_0_0_0   	2_0_0_1   	1.61   V    
O28  	Si18 	1_0_0_0   	1_0_0_0   	1.61   V    
O28  	Si7  	1_0_0_0   	1_0_0_0   	1.61   V    
O29  	Si8  	1_0_0_0   	1_0_0_0   	1.609  V    
O29  	Si13 	1_0_0_0   	1_0_0_0   	1.611  V    
O30  	Si10 	1_0_0_0   	1_0_0_0   	1.611  V    
O30  	Si8  	1_0_0_0   	1_0_0_0   	1.611  V    
O31  	Si10 	1_0_0_0   	1_0_0_0   	1.61   V    
O31  	Si14 	1_0_0_0   	7_0_0_1   	1.61   V    
O32  	Si12 	1_0_0_0   	1_0_0_0   	1.608  V    
O32  	Si19 	1_0_0_0   	1_0_0_0   	1.608  V    
O33  	Si12 	1_0_0_0   	1_0_0_0   	1.611  V    
O33  	Si14 	1_0_0_0   	7_0_0_1   	1.609  V    
O34  	Si21 	1_0_0_0   	1_0_0_0   	1.609  V    
O34  	Si12 	1_0_0_0   	1_0_0_0   	1.61   V    
O35  	Si13 	1_0_0_0   	1_0_0_0   	1.609  V    
O35  	Si12 	1_0_0_0   	1_0_0_0   	1.612  V    
O36  	Si13 	1_0_0_0   	1_0_0_0   	1.61   V    
O36  	Si15 	1_0_0_0   	1_0_0_0   	1.61   V    
O37  	Si13 	1_0_0_0   	1_0_0_0   	1.609  V    
O37  	Si20 	1_0_0_0   	1_0_0_0   	1.611  V    
O38  	Si23 	1_0_0_0   	1_0_0_0   	1.611  V    
O38  	Si14 	1_0_0_0   	1_0_0_0   	1.611  V    
O39  	Si20 	1_0_0_0   	1_0_0_0   	1.608  V    
O39  	Si16 	1_0_0_0   	1_0_0_0   	1.611  V    
O40  	Si17 	1_0_0_0   	1_0_0_0   	1.61   V    
O40  	Si21 	1_0_0_0   	1_0_0_0   	1.61   V    
O41  	Si17 	1_0_0_0   	1_0_0_0   	1.611  V    
O41  	Si19 	1_0_0_0   	7_0_0_1   	1.61   V    
O42  	Si23 	1_0_0_0   	1_0_0_0   	1.607  V    
O42  	Si17 	1_0_0_0   	1_0_0_0   	1.608  V    
O43  	Si19 	1_0_0_0   	1_0_0_0   	1.611  V    
O43  	Si23 	1_0_0_0   	1_0_0_0   	1.613  V    
O44  	Si19 	1_0_0_0   	1_0_0_0   	1.609  V    
O44  	Si20 	1_0_0_0   	1_0_0_0   	1.61   V    
Si2  	O14  	1_0_0_0   	2_1_0_1   	1.611  V    
Si2  	O19  	1_0_0_0   	1_1_0_0   	1.611  V    
Si2  	O21  	1_0_0_0   	1_1_0_0   	1.609  V    
Si4  	O4   	1_0_0_0   	1_0_0_1   	1.609  V    
Si6  	O1   	1_0_0_0   	2_0_0_1   	1.607  V    
Si6  	O47  	1_0_0_0   	1_0_0_0   	1.611  V    
Si7  	O49  	1_0_0_0   	1_0_0_0   	1.611  V    
Si8  	O50  	1_0_0_0   	1_0_0_0   	1.609  V    
Si9  	O45  	1_0_0_0   	1_0_0_0   	1.609  V    
Si10 	O11  	1_0_0_0   	7_0_0_1   	1.609  V    
Si11 	O46  	1_0_0_0   	1_0_0_0   	1.611  V    
Si14 	O31  	1_0_0_0   	7_0_0_1   	1.61   V    
Si14 	O33  	1_0_0_0   	7_0_0_1   	1.609  V    
Si14 	O48  	1_0_0_0   	1_0_0_0   	1.609  V    
Si15 	O27  	1_0_0_0   	2_0_0_1   	1.61   V    
Si15 	O51  	1_0_0_0   	1_0_0_0   	1.61   V    
Si16 	O8   	1_0_0_0   	2_0_0_1   	1.612  V    
Si16 	O20  	1_0_0_0   	1_-1_0_0  	1.61   V    
Si17 	O17  	1_0_0_0   	7_0_0_1   	1.611  V    
Si18 	O16  	1_0_0_0   	7_0_0_1   	1.609  V    
Si19 	O41  	1_0_0_0   	7_0_0_1   	1.61   V    
Si21 	O52  	1_0_0_0   	1_0_0_0   	1.61   V    
Si22 	O13  	1_0_0_0   	1_0_0_1   	1.61   V    
ZA9  	ZA9  	1_0_0_0   	7_0_0_2   	3.339  V    
ZA9  	ZA16 	1_0_0_0   	1_0_0_1   	4.39   V    
ZA14 	ZA14 	1_0_0_0   	7_0_0_1   	2.341  V    
O45  	Si9  	1_0_0_0   	4_0_0_0   	1.609  V    
O46  	Si11 	1_0_0_0   	4_0_0_0   	1.611  V    
O47  	Si6  	1_0_0_0   	4_0_0_0   	1.611  V    
O48  	Si14 	1_0_0_0   	4_0_0_0   	1.609  V    
ZA15 	ZA1  	1_0_0_0   	1_0_0_1   	2.948  V    
ZA16 	ZA3  	1_0_0_0   	6_0_-1_1  	4.402  V    
ZA16 	ZA5  	1_0_0_0   	6_0_-1_1  	4.413  V    
ZA16 	ZA9  	1_0_0_0   	1_0_0_-1  	4.39   V    
ZA16 	ZA9  	1_0_0_0   	4_0_0_-1  	4.39   V    
O49  	Si7  	1_0_0_0   	4_0_1_0   	1.611  V    
O50  	Si8  	1_0_0_0   	4_0_1_0   	1.609  V    
O51  	Si15 	1_0_0_0   	4_0_1_0   	1.61   V    
O52  	Si21 	1_0_0_0   	4_0_1_0   	1.61   V    
ZA3  	ZA16 	1_0_0_0   	6_0_0_1   	4.402  V    
ZA3  	ZA12 	1_0_0_0   	1_0_0_1   	3.106  V    
ZA5  	ZA2  	1_0_0_0   	5_0_0_0   	9.098  V    
ZA5  	ZA16 	1_0_0_0   	6_0_0_1   	4.413  V    
ZA1  	ZA15 	1_0_0_0   	2_0_0_1   	2.948  V    
ZA1  	ZA15 	1_0_0_0   	1_0_0_-1  	2.948  V    
ZA2  	ZA5  	1_0_0_0   	6_0_-1_1  	9.098  V    
ZA2  	ZA5  	1_0_0_0   	5_-1_-1_0 	9.098  V    
ZA2  	ZA7  	1_0_0_0   	3_0_0_1   	6.066  V    
ZA4  	ZA7  	1_0_0_0   	3_0_1_1   	3.942  V    
ZA12 	ZA3  	1_0_0_0   	1_0_0_-1  	3.106  V    
ZA12 	ZA3  	1_0_0_0   	2_0_0_1   	3.106  V    
