data_UTL-NT
_audit_creation_method             	Write2Cif_ToposPro  
_symmetry_space_group_name_H-M     	C2/M                
_symmetry_Int_Tables_number        	12                  
_symmetry_cell_setting             	monoclinic system   
_cell_length_a                     	28.996              
_cell_length_b                     	13.968              
_cell_length_c                     	12.449              
_cell_angle_alpha                  	90.0                
_cell_angle_beta                   	104.91              
_cell_angle_gamma                  	90.0                
loop_
_symmetry_equiv_pos_as_xyz
x,y,z
-x,y,-z
-x,-y,-z
x,-y,z
x+1/2,y+1/2,z
-x+1/2,y+1/2,-z
-x+1/2,-y+1/2,-z
x+1/2,-y+1/2,z
loop_
_atom_site_label
_atom_site_type_symbol
_atom_site_fract_x
_atom_site_fract_y
_atom_site_fract_z
O1        	O         	0.4194    	0.6797    	0.7411    
O2        	O         	0.5076    	0.629     	0.8415    
O3        	O         	0.4414    	0.631     	0.9514    
O4        	O         	0.4023    	0.6809    	0.1112    
O5        	O         	0.2957    	0.906     	0.8355    
O6        	O         	0.1941    	0.4048    	0.7853    
O7        	O         	0.3379    	0.4062    	0.7161    
O8        	O         	0.1967    	0.4055    	0.467     
O9        	O         	0.3288    	0.7254    	0.1919    
O10       	O         	0.2401    	0.7693    	0.1902    
O11       	O         	0.3085    	0.783     	0.3751    
O12       	O         	0.3434    	0.7376    	0.5837    
O13       	O         	0.3479    	0.767     	0.7951    
O14       	O         	0.3281    	0.7753    	0.9881    
O15       	O         	0.3212    	0.5943    	0.0364    
Si1       	Si        	0.4521    	0.6099    	0.833     
Si2       	Si        	0.4401    	0.6099    	0.0777    
Si3       	Si        	0.2954    	0.7954    	0.2422    
Si4       	Si        	0.301     	0.7941    	0.4982    
Si5       	Si        	0.3072    	0.7938    	0.8569    
Si6       	Si        	0.3453    	0.695     	0.0827    
Si7       	Si        	0.3624    	0.6957    	0.7076    
ZA5       	ZA        	0.23359   	0.85074   	0.33699   
ZA7       	ZA        	0.25009   	0.666667  	0.01066   
O16       	O         	0.4394    	0.5       	0.7988    
O17       	O         	0.4252    	0.5       	0.089     
O18       	O         	0.2708    	0.5       	0.7776    
O19       	O         	0.2418    	0.5       	0.9608    
O20       	O         	0.2736    	0.5       	0.5664    
Si8       	Si        	0.2247    	0.5       	0.827     
Si9       	Si        	0.3046    	0.5       	0.6936    
Si10      	Si        	0.2278    	0.5       	0.4612    
Si11      	Si        	0.2921    	0.5       	0.0536    
ZA2       	ZA        	0.33632   	0.5       	0.88037   
O21       	O         	0.2173    	0.0       	0.8244    
O22       	O         	0.2546    	0.0       	0.6512    
Si12      	Si        	0.266     	0.0       	0.7847    
ZA8       	ZA        	0.51707   	0.0       	0.84247   
O23       	O         	0.25      	0.75      	0.5       
ZA1       	ZA        	0.5       	0.5       	0.0       
ZA3       	ZA        	0.5       	0.5       	0.5       
ZA4       	ZA        	0.5       	0.0       	0.0       
ZA6       	ZA        	0.5       	0.0       	0.5       
loop_
_topos_bond_atom_site_label_1
_topos_bond_atom_site_label_2
_topos_bond_site_symmetry_1
_topos_bond_site_symmetry_2
_topos_bond_distance
_topos_bond_type
O1   	Si1  	1_0_0_0   	1_0_0_0   	1.613  V    
O1   	Si7  	1_0_0_0   	1_0_0_0   	1.613  V    
O2   	Si1  	1_0_0_0   	1_0_0_0   	1.608  V    
O2   	Si2  	1_0_0_0   	2_1_0_1   	1.612  V    
O3   	Si1  	1_0_0_0   	1_0_0_0   	1.61   V    
O3   	Si2  	1_0_0_0   	1_0_0_1   	1.61   V    
O4   	Si2  	1_0_0_0   	1_0_0_0   	1.611  V    
O4   	Si6  	1_0_0_0   	1_0_0_0   	1.611  V    
O5   	Si5  	1_0_0_0   	1_0_0_0   	1.61   V    
O5   	Si12 	1_0_0_0   	1_0_1_0   	1.608  V    
O6   	Si8  	1_0_0_0   	1_0_0_0   	1.609  V    
O6   	Si3  	1_0_0_0   	6_0_-1_1  	1.612  V    
O7   	Si9  	1_0_0_0   	1_0_0_0   	1.609  V    
O7   	Si7  	1_0_0_0   	4_0_1_0   	1.606  V    
O8   	Si10 	1_0_0_0   	1_0_0_0   	1.611  V    
O8   	Si4  	1_0_0_0   	6_0_-1_1  	1.612  V    
O9   	Si6  	1_0_0_0   	1_0_0_0   	1.61   V    
O9   	Si3  	1_0_0_0   	1_0_0_0   	1.612  V    
O10  	Si3  	1_0_0_0   	1_0_0_0   	1.609  V    
O10  	Si5  	1_0_0_0   	7_0_1_1   	1.609  V    
O11  	Si3  	1_0_0_0   	1_0_0_0   	1.609  V    
O11  	Si4  	1_0_0_0   	1_0_0_0   	1.61   V    
O12  	Si7  	1_0_0_0   	1_0_0_0   	1.609  V    
O12  	Si4  	1_0_0_0   	1_0_0_0   	1.611  V    
O13  	Si7  	1_0_0_0   	1_0_0_0   	1.61   V    
O13  	Si5  	1_0_0_0   	1_0_0_0   	1.61   V    
O14  	Si5  	1_0_0_0   	1_0_0_0   	1.61   V    
O14  	Si6  	1_0_0_0   	1_0_0_1   	1.61   V    
O15  	Si11 	1_0_0_0   	1_0_0_0   	1.608  V    
O15  	Si6  	1_0_0_0   	1_0_0_0   	1.61   V    
Si1  	O16  	1_0_0_0   	1_0_0_0   	1.61   V    
Si2  	O17  	1_0_0_0   	1_0_0_0   	1.611  V    
Si2  	O2   	1_0_0_0   	2_1_0_1   	1.612  V    
Si2  	O3   	1_0_0_0   	1_0_0_-1  	1.61   V    
Si3  	O6   	1_0_0_0   	6_0_0_1   	1.612  V    
Si4  	O8   	1_0_0_0   	6_0_0_1   	1.612  V    
Si4  	O23  	1_0_0_0   	1_0_0_0   	1.607  V    
Si5  	O10  	1_0_0_0   	7_0_1_1   	1.609  V    
Si6  	O14  	1_0_0_0   	1_0_0_-1  	1.61   V    
Si7  	O7   	1_0_0_0   	4_0_1_0   	1.606  V    
ZA7  	ZA7  	1_0_0_0   	7_0_1_0   	2.343  V    
O16  	Si1  	1_0_0_0   	4_0_1_0   	1.61   V    
O17  	Si2  	1_0_0_0   	4_0_1_0   	1.611  V    
O18  	Si9  	1_0_0_0   	1_0_0_0   	1.607  V    
O18  	Si8  	1_0_0_0   	1_0_0_0   	1.609  V    
O19  	Si8  	1_0_0_0   	1_0_0_0   	1.611  V    
O19  	Si11 	1_0_0_0   	1_0_0_1   	1.611  V    
O20  	Si9  	1_0_0_0   	1_0_0_0   	1.607  V    
O20  	Si10 	1_0_0_0   	1_0_0_0   	1.607  V    
Si8  	O6   	1_0_0_0   	4_0_1_0   	1.609  V    
Si9  	O7   	1_0_0_0   	4_0_1_0   	1.609  V    
Si10 	O8   	1_0_0_0   	4_0_1_0   	1.611  V    
Si10 	O22  	1_0_0_0   	6_0_0_1   	1.608  V    
Si11 	O15  	1_0_0_0   	4_0_1_0   	1.608  V    
Si11 	O19  	1_0_0_0   	1_0_0_-1  	1.611  V    
Si11 	O21  	1_0_0_0   	6_0_0_1   	1.611  V    
O21  	Si12 	1_0_0_0   	1_0_0_0   	1.612  V    
O21  	Si11 	1_0_0_0   	6_0_-1_1  	1.611  V    
O22  	Si12 	1_0_0_0   	1_0_0_0   	1.609  V    
O22  	Si10 	1_0_0_0   	6_0_-1_1  	1.608  V    
Si12 	O5   	1_0_0_0   	1_0_-1_0  	1.608  V    
Si12 	O5   	1_0_0_0   	4_0_1_0   	1.608  V    
ZA8  	ZA4  	1_0_0_0   	1_0_0_1   	2.143  V    
ZA8  	ZA6  	1_0_0_0   	1_0_0_0   	4.164  V    
O23  	Si4  	1_0_0_0   	7_0_1_1   	1.607  V    
ZA3  	ZA6  	1_0_0_0   	1_0_0_0   	6.984  V    
ZA3  	ZA6  	1_0_0_0   	1_0_1_0   	6.984  V    
ZA4  	ZA8  	1_0_0_0   	2_1_0_1   	2.143  V    
ZA4  	ZA8  	1_0_0_0   	1_0_0_-1  	2.143  V    
ZA6  	ZA3  	1_0_0_0   	1_0_-1_0  	6.984  V    
ZA6  	ZA8  	1_0_0_0   	2_1_0_1   	4.164  V    
