data_UOV-NT
_audit_creation_method             	Write2Cif           
_symmetry_space_group_name_H-M     	AMM2                
_symmetry_Int_Tables_number        	38                  
_symmetry_cell_setting             	orthorhombic system 
_cell_length_a                     	12.7177             
_cell_length_b                     	21.9893             
_cell_length_c                     	38.7639             
_cell_angle_alpha                  	90.0                
_cell_angle_beta                   	90.0                
_cell_angle_gamma                  	90.0                
loop_
_symmetry_equiv_pos_as_xyz
x,y,z
-x,-y,z
x,-y,z
-x,y,z
x,y+1/2,z+1/2
-x,-y+1/2,z+1/2
x,-y+1/2,z+1/2
-x,y+1/2,z+1/2
loop_
_atom_site_label
_atom_site_type_symbol
_atom_site_fract_x
_atom_site_fract_y
_atom_site_fract_z
loop_
_geom_bond_atom_site_label_1
_geom_bond_atom_site_label_2
_geom_bond_distance
_geom_bond_site_symmetry_2
_ccdc_geom_bond_type
