data_UOV-NT
_audit_creation_date              2025-02-19
_audit_creation_method            'Materials Studio'
_symmetry_space_group_name_H-M    'AMM2'
_symmetry_Int_Tables_number       38
_symmetry_cell_setting            orthorhombic
loop_
_symmetry_equiv_pos_as_xyz
  x,y,z
  -x,-y,z
  x,-y,z
  -x,y,z
  x,y+1/2,z+1/2
  -x,-y+1/2,z+1/2
  x,-y+1/2,z+1/2
  -x,y+1/2,z+1/2
_cell_length_a                    12.7177
_cell_length_b                    21.9893
_cell_length_c                    38.7639
_cell_angle_alpha                 90.0000
_cell_angle_beta                  90.0000
_cell_angle_gamma                 90.0000
loop_
_atom_site_label
_atom_site_type_symbol
_atom_site_fract_x
_atom_site_fract_y
_atom_site_fract_z
_atom_site_U_iso_or_equiv
_atom_site_adp_type
_atom_site_occupancy
O1     O     0.17169   0.32645   0.80187   0.00000  Uiso   1.00
O2     O     0.10350   0.40757   0.84579   0.00000  Uiso   1.00
O3     O     0.30524   0.38544   0.84140   0.00000  Uiso   1.00
O4     O     0.17753   0.30359   0.86875   0.00000  Uiso   1.00
O5     O     0.30648   0.38616   0.96608   0.00000  Uiso   1.00
O6     O     0.10363   0.40865   0.96315   0.00000  Uiso   1.00
O7     O     0.17449   0.32354   0.00413   0.00000  Uiso   1.00
O8     O     0.17861   0.30783   0.93652   0.00000  Uiso   1.00
O9     O     0.37076   0.41266   0.90343   0.00000  Uiso   1.00
O10    O     0.14166   0.20503   0.90546   0.00000  Uiso   1.00
O11    O     0.18342   0.20898   0.79429   0.00000  Uiso   1.00
O12    O     0.13742   0.27839   0.74061   0.00000  Uiso   1.00
O13    O     0.11876   0.27630   0.06384   0.00000  Uiso   1.00
O14    O     0.18483   0.20598   0.01390   0.00000  Uiso   1.00
O15    O     0.13670   0.08592   0.90099   0.00000  Uiso   1.00
O16    O     0.19702   0.13692   0.95907   0.00000  Uiso   1.00
O17    O     0.18807   0.11572   0.83756   0.00000  Uiso   1.00
O18    O     0.10366   0.10367   0.77614   0.00000  Uiso   1.00
O19    O     0.30847   0.11652   0.78289   0.00000  Uiso   1.00
O20    O     0.18592   0.20365   0.69039   0.00000  Uiso   1.00
O21    O     0.16968   0.32088   0.67803   0.00000  Uiso   1.00
O22    O     0.30903   0.11220   0.01435   0.00000  Uiso   1.00
O23    O     0.10334   0.09608   0.01555   0.00000  Uiso   1.00
O24    O     0.18174   0.19793   0.11146   0.00000  Uiso   1.00
O25    O     0.18012   0.31486   0.12389   0.00000  Uiso   1.00
O26    O     0.37463   0.08245   0.72174   0.00000  Uiso   1.00
O27    O     0.30659   0.11776   0.66170   0.00000  Uiso   1.00
O28    O     0.10341   0.10300   0.66538   0.00000  Uiso   1.00
O29    O     0.30428   0.38541   0.64069   0.00000  Uiso   1.00
O30    O     0.10289   0.40395   0.63411   0.00000  Uiso   1.00
O31    O     0.36774   0.08874   0.07860   0.00000  Uiso   1.00
Si1    Si    0.19001   0.35523   0.83960   0.00000  Uiso   1.00
Si2    Si    0.19102   0.35623   0.96737   0.00000  Uiso   1.00
Si3    Si    0.37979   0.43039   0.86324   0.00000  Uiso   1.00
Si4    Si    0.12371   0.27744   0.90330   0.00000  Uiso   1.00
Si5    Si    0.12285   0.26918   0.78151   0.00000  Uiso   1.00
Si6    Si    0.37977   0.43070   0.94355   0.00000  Uiso   1.00
Si7    Si    0.11908   0.26648   0.02272   0.00000  Uiso   1.00
Si8    Si    0.11973   0.14307   0.92637   0.00000  Uiso   1.00
Si9    Si    0.19547   0.13640   0.79779   0.00000  Uiso   1.00
Si10   Si    0.12295   0.26494   0.70006   0.00000  Uiso   1.00
Si11   Si    0.19764   0.13707   0.00060   0.00000  Uiso   1.00
Si12   Si    0.11961   0.26052   0.10436   0.00000  Uiso   1.00
Si13   Si    0.12221   0.06862   0.86091   0.00000  Uiso   1.00
Si14   Si    0.38016   0.06827   0.76241   0.00000  Uiso   1.00
Si15   Si    0.19531   0.15260   0.66077   0.00000  Uiso   1.00
Si16   Si    0.19086   0.35282   0.64129   0.00000  Uiso   1.00
Si17   Si    0.37886   0.06903   0.03879   0.00000  Uiso   1.00
Si18   Si    0.38016   0.06883   0.68099   0.00000  Uiso   1.00
Si19   Si    0.37926   0.42986   0.61861   0.00000  Uiso   1.00
ZA23   Lr    0.17461   0.13736   0.72822   0.00000  Uiso   1.00
ZA24   Lr    0.17316   0.13707   0.07197   0.00000  Uiso   1.00
O32    O     0.00000   0.29268   0.90321   0.00000  Uiso   1.00
O33    O     0.00000   0.26308   0.79079   0.00000  Uiso   1.00
O34    O     0.00000   0.25958   0.00917   0.00000  Uiso   1.00
O35    O     0.00000   0.14317   0.93989   0.00000  Uiso   1.00
O36    O     0.00000   0.25645   0.69143   0.00000  Uiso   1.00
O37    O     0.00000   0.25554   0.11776   0.00000  Uiso   1.00
O38    O     0.00000   0.07347   0.85050   0.00000  Uiso   1.00
O39    O     0.00000   0.39604   0.90438   0.00000  Uiso   1.00
O40    O     0.00000   0.07010   0.72109   0.00000  Uiso   1.00
O41    O     0.00000   0.09814   0.07469   0.00000  Uiso   1.00
Si20   Si    0.00000   0.42746   0.86681   0.00000  Uiso   1.00
Si21   Si    0.00000   0.42757   0.94192   0.00000  Uiso   1.00
Si22   Si    0.00000   0.06933   0.76258   0.00000  Uiso   1.00
Si23   Si    0.00000   0.07307   0.03564   0.00000  Uiso   1.00
Si24   Si    0.00000   0.06931   0.67963   0.00000  Uiso   1.00
Si25   Si    0.00000   0.42694   0.61374   0.00000  Uiso   1.00
ZA5    Lr    0.00000   0.23844   0.96819   0.00000  Uiso   1.00
ZA6    Lr    0.00000   0.21405   0.84631   0.00000  Uiso   1.00
ZA7    Lr    0.00000   0.17849   0.73225   0.00000  Uiso   1.00
ZA10   Lr    0.00000   0.17686   0.06873   0.00000  Uiso   1.00
ZA14   Lr    0.00000   0.25159   0.65063   0.00000  Uiso   1.00
ZA20   Lr    0.00000   0.35410   0.90366   0.00000  Uiso   1.00
O42    O     0.34405   0.50000   0.85782   0.00000  Uiso   1.00
O43    O     0.34209   0.50000   0.94878   0.00000  Uiso   1.00
O44    O     0.34618   0.50000   0.62375   0.00000  Uiso   1.00
ZA4    Lr    0.18061   0.50000   0.90368   0.00000  Uiso   1.00
ZA21   Lr    0.17322   0.50000   0.74061   0.00000  Uiso   1.00
ZA22   Lr    0.17312   0.50000   0.06266   0.00000  Uiso   1.00
O45    O     0.50000   0.42252   0.85095   0.00000  Uiso   1.00
O46    O     0.50000   0.42395   0.95597   0.00000  Uiso   1.00
O47    O     0.50000   0.07434   0.77537   0.00000  Uiso   1.00
O48    O     0.50000   0.07352   0.02706   0.00000  Uiso   1.00
O49    O     0.50000   0.07674   0.66827   0.00000  Uiso   1.00
O50    O     0.50000   0.42099   0.63016   0.00000  Uiso   1.00
ZA13   Lr    0.50000   0.25142   0.65101   0.00000  Uiso   1.00
O51    O     0.16204   0.00000   0.85450   0.00000  Uiso   1.00
O52    O     0.33959   0.00000   0.76946   0.00000  Uiso   1.00
O53    O     0.33878   0.00000   0.03444   0.00000  Uiso   1.00
O54    O     0.34277   0.00000   0.67370   0.00000  Uiso   1.00
ZA17   Lr    0.19185   0.00000   0.72403   0.00000  Uiso   1.00
ZA19   Lr    0.19110   0.00000   0.07478   0.00000  Uiso   1.00
ZA25   Lr    0.17446   0.00000   0.79592   0.00000  Uiso   1.00
ZA26   Lr    0.16369   0.00000   0.97246   0.00000  Uiso   1.00
O55    O     0.00000   0.50000   0.87191   0.00000  Uiso   1.00
O56    O     0.00000   0.50000   0.93637   0.00000  Uiso   1.00
O57    O     0.00000   0.50000   0.61300   0.00000  Uiso   1.00
ZA8    Lr    0.00000   0.50000   0.74055   0.00000  Uiso   1.00
ZA11   Lr    0.00000   0.50000   0.06320   0.00000  Uiso   1.00
O58    O     0.00000   0.00000   0.77595   0.00000  Uiso   1.00
O59    O     0.00000   0.00000   0.03638   0.00000  Uiso   1.00
O60    O     0.00000   0.00000   0.66622   0.00000  Uiso   1.00
ZA12   Lr    0.00000   0.00000   0.94449   0.00000  Uiso   1.00
ZA15   Lr    0.00000   0.00000   0.81600   0.00000  Uiso   1.00
ZA1    Lr    0.50000   0.50000   0.90339   0.00000  Uiso   1.00
ZA2    Lr    0.50000   0.50000   0.73463   0.00000  Uiso   1.00
ZA9    Lr    0.50000   0.50000   0.06790   0.00000  Uiso   1.00
ZA3    Lr    0.50000   0.00000   0.90063   0.00000  Uiso   1.00
ZA16   Lr    0.50000   0.00000   0.72170   0.00000  Uiso   1.00
ZA18   Lr    0.50000   0.00000   0.07870   0.00000  Uiso   1.00
loop_
_geom_bond_atom_site_label_1
_geom_bond_atom_site_label_2
_geom_bond_distance
_geom_bond_site_symmetry_2
_ccdc_geom_bond_type
O1     Si1     1.611   .     S
O1     Si5     1.611   .     S
O2     Si20    1.609   .     S
O2     Si1     1.610   .     S
O3     Si3     1.610   .     S
O3     Si1     1.611   .     S
O4     Si1     1.610   .     S
O4     Si4     1.610   .     S
O5     Si6     1.610   .     S
O5     Si2     1.610   .     S
O6     Si21    1.609   .     S
O6     Si2     1.610   .     S
O7     Si7     1.609   .     S
O7     Si2     1.610   1_554 S
O8     Si2     1.609   .     S
O8     Si4     1.610   .     S
O9     Si6     1.609   .     S
O9     Si3     1.610   .     S
O10    Si8     1.610   .     S
O10    Si4     1.611   .     S
O11    Si9     1.609   .     S
O11    Si5     1.610   .     S
O12    Si5     1.609   .     S
O12    Si10    1.610   .     S
O13    Si7     1.609   .     S
O13    Si12    1.609   .     S
O14    Si7     1.608   .     S
O14    Si11    1.609   .     S
O15    Si13    1.610   .     S
O15    Si8     1.611   .     S
O16    Si8     1.610   .     S
O16    Si11    1.610   1_556 S
O17    Si9     1.610   .     S
O17    Si13    1.610   .     S
O18    Si22    1.608   .     S
O18    Si9     1.608   .     S
O19    Si14    1.608   .     S
O19    Si9     1.609   .     S
O20    Si15    1.610   .     S
O20    Si10    1.612   .     S
O21    Si16    1.611   .     S
O21    Si10    1.611   .     S
O22    Si17    1.609   .     S
O22    Si11    1.609   .     S
O23    Si11    1.608   .     S
O23    Si23    1.609   .     S
O24    Si12    1.611   .     S
O24    Si16    1.611   7_554 S
O25    Si12    1.610   .     S
O25    Si15    1.610   7_554 S
O26    Si14    1.609   .     S
O26    Si18    1.609   .     S
O27    Si15    1.610   .     S
O27    Si18    1.610   .     S
O28    Si24    1.607   .     S
O28    Si15    1.609   .     S
O29    Si16    1.611   .     S
O29    Si19    1.612   .     S
O30    Si25    1.610   .     S
O30    Si16    1.610   .     S
O31    Si17    1.609   .     S
O31    Si19    1.611   7_554 S
Si2    O7      1.610   1_556 S
Si3    O45     1.611   .     S
Si3    O42     1.610   .     S
Si4    O32     1.609   .     S
Si5    O33     1.609   .     S
Si6    O46     1.610   .     S
Si6    O43     1.610   .     S
Si7    O34     1.610   .     S
Si8    O35     1.610   .     S
Si10   O36     1.610   .     S
Si11   O16     1.610   1_554 S
Si12   O37     1.611   .     S
Si13   O38     1.609   .     S
Si13   O51     1.611   .     S
Si14   O47     1.610   .     S
Si14   O52     1.611   .     S
Si15   O25     1.610   7     S
Si16   O24     1.611   7     S
Si17   O48     1.609   .     S
Si17   O53     1.610   .     S
Si18   O49     1.611   .     S
Si18   O54     1.611   .     S
Si19   O44     1.611   .     S
Si19   O31     1.611   7     S
Si19   O50     1.611   .     S
ZA23   ZA7     2.403   .     S
ZA24   ZA10    2.373   .     S
O32    Si4     1.609   4     S
O33    Si5     1.609   4     S
O34    Si7     1.610   4     S
O35    Si8     1.610   4     S
O36    Si10    1.610   4     S
O37    Si12    1.611   4     S
O38    Si13    1.609   4     S
O39    Si21    1.612   .     S
O39    Si20    1.612   .     S
O40    Si24    1.607   .     S
O40    Si22    1.608   .     S
O41    Si23    1.611   .     S
O41    Si25    1.611   6_554 S
Si20   O2      1.609   4     S
Si20   O55     1.607   .     S
Si21   O6      1.609   4     S
Si21   O56     1.607   .     S
Si22   O18     1.608   4     S
Si22   O58     1.610   .     S
Si23   O23     1.609   4     S
Si23   O59     1.607   .     S
Si24   O28     1.607   4     S
Si24   O60     1.610   .     S
Si25   O30     1.610   4     S
Si25   O57     1.607   .     S
Si25   O41     1.611   6     S
ZA7    ZA23    2.403   4     S
ZA10   ZA24    2.373   4     S
O42    Si3     1.610   3_565 S
O43    Si6     1.610   3_565 S
O44    Si19    1.611   3_565 S
ZA21   ZA2     4.162   .     S
ZA21   ZA8     2.203   .     S
ZA22   ZA9     4.162   .     S
ZA22   ZA11    2.202   .     S
O45    Si3     1.611   4_655 S
O46    Si6     1.610   4_655 S
O47    Si14    1.610   4_655 S
O48    Si17    1.609   4_655 S
O49    Si18    1.611   4_655 S
O50    Si19    1.611   4_655 S
ZA13   ZA2     6.355   .     S
ZA13   ZA9     6.399   5_545 S
O51    Si13    1.611   3     S
O52    Si14    1.611   3     S
O53    Si17    1.610   3     S
O54    Si18    1.611   3     S
ZA17   ZA25    2.795   .     S
ZA25   ZA15    2.351   .     S
ZA26   ZA3     5.104   .     S
ZA26   ZA12    2.347   .     S
O55    Si20    1.607   2_565 S
O56    Si21    1.607   2_565 S
O57    Si25    1.607   2_565 S
ZA8    ZA21    2.203   2_565 S
ZA11   ZA22    2.202   2_565 S
O58    Si22    1.610   2     S
O59    Si23    1.607   2     S
O60    Si24    1.610   2     S
ZA12   ZA26    2.347   2     S
ZA15   ZA25    2.351   2     S
ZA2    ZA13    6.355   2_665 S
ZA2    ZA3    12.739   1_565 S
ZA2    ZA21    4.162   2_665 S
ZA9    ZA3    12.764   1_554 S
ZA9    ZA3    12.764   1_564 S
ZA9    ZA22    4.162   2_665 S
ZA9    ZA13    6.399   5_554 S
ZA9    ZA13    6.399   6_654 S
ZA3    ZA2    12.739   1_545 S
ZA3    ZA9    12.764   1_556 S
ZA3    ZA9    12.764   1_546 S
ZA3    ZA26    5.104   2_655 S
